@<TRIPOS>MOLECULE
RES
30252 31501 1 0 1
SMALL
NO_CHARGES
@<TRIPOS>CRYSIN
 1247.9145  1460.5080   965.8967    90.0000    90.0000    90.0000 1 1
@<TRIPOS>ATOM
       1 C0           9.5791     9.8827     9.3006 C0            1 RES     
       2 C1           8.7127    10.4134    10.4617 C1            1 RES     
       3 C1           9.4571    11.1912    11.4735 C1            1 RES     
       4 S2           8.6556    10.8364    13.0450 S2            1 RES     
       5 C1           7.1597    10.7371    12.0368 C1            1 RES     
       6 C1           7.4182    10.3175    10.7453 C1            1 RES     
       7 C1          10.8123    10.7692    11.1520 C1            1 RES     
       8 C1          10.9332    10.0933     9.9725 C1            1 RES     
       9 C1          12.2684     9.7781     9.6622 C1            1 RES     
      10 C1          13.1618    10.2851    10.6361 C1            1 RES     
      11 S2          12.2831    11.0970    11.8416 S2            1 RES     
      12 H3           6.6605     9.8590    10.1313 H3            1 RES     
      13 H3          12.5730     9.2318     8.7782 H3            1 RES     
      14 N4          15.2257     9.1306     9.9474 N4            1 RES     
      15 C1          16.5715     8.8968     9.9726 C1            1 RES     
      16 C1          17.4269     9.7070    10.7291 C1            1 RES     
      17 C1          16.8738    10.7569    11.4514 C1            1 RES     
      18 N4          17.6049    11.6175    12.2013 N4            1 RES     
      19 S2          16.4472    12.6318    12.8001 S2            1 RES     
      20 N4          15.0415    12.0369    12.1682 N4            1 RES     
      21 C1          15.4698    10.9780    11.4314 C1            1 RES     
      22 C1          14.6380    10.1372    10.6609 C1            1 RES     
      23 H5          16.9831     8.0712     9.4065 H5            1 RES     
      24 C0           9.4759    10.8359     8.0658 C0            1 RES     
      25 C0           8.0800    10.8786     7.4361 C0            1 RES     
      26 C0           7.8733    11.9038     6.3168 C0            1 RES     
      27 C0           8.0479    13.3772     6.7180 C0            1 RES     
      28 C0           7.3198    13.7470     8.0266 C0            1 RES     
      29 C0           7.2651    15.2634     8.2482 C0            1 RES     
      30 C0           6.1449    15.8970     7.4084 C0            1 RES     
      31 C0           6.1141    17.4179     7.5644 C0            1 RES     
      32 C0           4.8612    17.9969     6.9000 C0            1 RES     
      33 C0           4.8306    19.5268     6.7115 C0            1 RES     
      34 C0           4.9734    20.4193     7.9606 C0            1 RES     
      35 C0           6.4344    20.6056     8.4278 C0            1 RES     
      36 C0           6.6230    21.5478     9.6334 C0            1 RES     
      37 C0           6.6271    23.0703     9.3551 C0            1 RES     
      38 C0           5.3255    23.7307     8.8770 C0            1 RES     
      39 C0           4.1561    23.4964     9.8313 C0            1 RES     
      40 H6           9.7298    11.8606     8.4108 H6            1 RES     
      41 H6          10.2226    10.5501     7.2931 H6            1 RES     
      42 H6           7.8834     9.9062     6.9875 H6            1 RES     
      43 H6           7.3146    11.0728     8.2100 H6            1 RES     
      44 H6           8.5374    11.6796     5.4541 H6            1 RES     
      45 H6           6.8222    11.7743     5.9738 H6            1 RES     
      46 H6           9.1259    13.6182     6.8429 H6            1 RES     
      47 H6           7.6699    13.9742     5.8626 H6            1 RES     
      48 H6           6.2852    13.3403     8.0554 H6            1 RES     
      49 H6           7.8893    13.2891     8.8636 H6            1 RES     
      50 H6           8.2598    15.7148     8.0369 H6            1 RES     
      51 H6           7.0179    15.4567     9.3152 H6            1 RES     
      52 H6           6.2647    15.6615     6.3306 H6            1 RES     
      53 H6           5.1781    15.4683     7.7566 H6            1 RES     
      54 H6           6.0792    17.6592     8.6461 H6            1 RES     
      55 H6           7.0339    17.8333     7.0976 H6            1 RES     
      56 H6           4.7613    17.5651     5.8795 H6            1 RES     
      57 H6           3.9752    17.6739     7.4914 H6            1 RES     
      58 H6           5.5837    19.8391     5.9562 H6            1 RES     
      59 H6           3.8278    19.7338     6.2750 H6            1 RES     
      60 H6           4.3200    20.0488     8.7799 H6            1 RES     
      61 H6           4.5907    21.3988     7.6496 H6            1 RES     
      62 H6           6.8174    19.6312     8.7615 H6            1 RES     
      63 H6           7.0822    20.9464     7.5912 H6            1 RES     
      64 H6           7.6468    21.3414    10.0190 H6            1 RES     
      65 H6           5.9184    21.2775    10.4479 H6            1 RES     
      66 H6           6.9124    23.5663    10.3090 H6            1 RES     
      67 H6           7.4247    23.2973     8.6142 H6            1 RES     
      68 H6           5.5060    24.8253     8.8086 H6            1 RES     
      69 H6           5.0672    23.4064     7.8542 H6            1 RES     
      70 H6           4.4052    23.8770    10.8444 H6            1 RES     
      71 H6           3.2607    24.0357     9.4573 H6            1 RES     
      72 H6           3.9077    22.4176     9.8974 H6            1 RES     
      73 C0           9.3942     8.3487     8.9491 C0            1 RES     
      74 C0           7.9338     7.8340     8.9540 C0            1 RES     
      75 C0           7.6783     6.3984     8.4460 C0            1 RES     
      76 C0           7.6825     6.1667     6.9146 C0            1 RES     
      77 C0           6.7929     7.1753     6.1583 C0            1 RES     
      78 C0           6.4275     6.7808     4.7200 C0            1 RES     
      79 C0           5.2703     5.7689     4.6887 C0            1 RES     
      80 C0           4.8395     5.4448     3.2506 C0            1 RES     
      81 C0           3.5687     4.5849     3.2521 C0            1 RES     
      82 C0           3.1576     3.9473     1.9073 C0            1 RES     
      83 C0           2.7889     4.8690     0.7253 C0            1 RES     
      84 C0           4.0027     5.4579    -0.0223 C0            1 RES     
      85 C0           3.6573     6.3027    -1.2672 C0            1 RES     
      86 C0           3.3505     5.5458    -2.5836 C0            1 RES     
      87 C0           2.0721     4.6974    -2.6641 C0            1 RES     
      88 C0           0.8070     5.5001    -2.3673 C0            1 RES     
      89 H6           9.8830     8.1561     7.9696 H6            1 RES     
      90 H6           9.9209     7.7214     9.7029 H6            1 RES     
      91 H6           7.6258     7.8256    10.0200 H6            1 RES     
      92 H6           7.2412     8.4997     8.4220 H6            1 RES     
      93 H6           8.3602     5.6790     8.9480 H6            1 RES     
      94 H6           6.6436     6.1496     8.7725 H6            1 RES     
      95 H6           8.7119     6.2105     6.4975 H6            1 RES     
      96 H6           7.2974     5.1363     6.7615 H6            1 RES     
      97 H6           5.8500     7.3839     6.7104 H6            1 RES     
      98 H6           7.3744     8.1046     6.0956 H6            1 RES     
      99 H6           7.3242     6.4196     4.1703 H6            1 RES     
     100 H6           6.0564     7.6965     4.2104 H6            1 RES     
     101 H6           5.5551     4.8312     5.2103 H6            1 RES     
     102 H6           4.4042     6.2227     5.2221 H6            1 RES     
     103 H6           4.6182     6.3998     2.7361 H6            1 RES     
     104 H6           5.6710     4.9122     2.7413 H6            1 RES     
     105 H6           3.7307     3.7327     3.9485 H6            1 RES     
     106 H6           2.7255     5.1917     3.6518 H6            1 RES     
     107 H6           3.9265     3.2165     1.5759 H6            1 RES     
     108 H6           2.2389     3.3659     2.1467 H6            1 RES     
     109 H6           2.0865     5.6646     1.0560 H6            1 RES     
     110 H6           2.2449     4.2210     0.0267 H6            1 RES     
     111 H6           4.5208     6.1441     0.6623 H6            1 RES     
     112 H6           4.7229     4.6616    -0.3096 H6            1 RES     
     113 H6           4.5784     6.8828    -1.4999 H6            1 RES     
     114 H6           2.8688     7.0463    -1.0250 H6            1 RES     
     115 H6           3.2781     6.3156    -3.3836 H6            1 RES     
     116 H6           4.2166     4.8942    -2.8321 H6            1 RES     
     117 H6           1.9950     4.2986    -3.6992 H6            1 RES     
     118 H6           2.1376     3.8129    -2.0071 H6            1 RES     
     119 H6           0.7207     6.3551    -3.0710 H6            1 RES     
     120 H6          -0.0822     4.8468    -2.4903 H6            1 RES     
     121 H6           0.8156     5.8823    -1.3262 H6            1 RES     
     122 C0          22.3159     8.5862     9.0153 C0            1 RES     
     123 C1          21.1221     9.0293     9.8864 C1            1 RES     
     124 C1          21.4273     9.1467    11.3272 C1            1 RES     
     125 S2          19.9204     8.6632    12.1837 S2            1 RES     
     126 C1          19.1019     9.4185    10.7611 C1            1 RES     
     127 C1          19.8591     9.3337     9.6077 C1            1 RES     
     128 C1          22.6595     8.3739    11.3757 C1            1 RES     
     129 C1          23.1954     8.0800    10.1553 C1            1 RES     
     130 C1          24.4260     7.4055    10.2514 C1            1 RES     
     131 C1          24.8242     7.2404    11.5996 C1            1 RES     
     132 S2          23.6533     7.9234    12.6229 S2            1 RES     
     133 H3          19.4145     9.3861     8.6275 H3            1 RES     
     134 H3          25.0032     7.0721     9.3979 H3            1 RES     
     135 N4          26.6964     5.6701    11.2903 N4            1 RES     
     136 C1          27.7915     4.9649    11.7026 C1            1 RES     
     137 C1          28.3202     5.1454    12.9865 C1            1 RES     
     138 C1          27.7055     6.0620    13.8303 C1            1 RES     
     139 N4          28.1406     6.3344    15.0848 N4            1 RES     
     140 S2          27.0603     7.4766    15.5906 S2            1 RES     
     141 N4          26.0426     7.6504    14.3009 N4            1 RES     
     142 C1          26.5556     6.7757    13.3957 C1            1 RES     
     143 C1          26.0479     6.5636    12.0958 C1            1 RES     
     144 H5          28.2540     4.2521    11.0321 H5            1 RES     
     145 C0          23.0034     9.8292     8.3626 C0            1 RES     
     146 C0          22.1172    10.5619     7.3503 C0            1 RES     
     147 C0          22.6749    11.8724     6.7861 C0            1 RES     
     148 C0          22.9194    12.9918     7.8105 C0            1 RES     
     149 C0          21.7422    13.1990     8.7854 C0            1 RES     
     150 C0          21.8846    14.4930     9.5958 C0            1 RES     
     151 C0          21.4500    15.7088     8.7624 C0            1 RES     
     152 C0          21.6451    17.0174     9.5292 C0            1 RES     
     153 C0          21.0023    18.1818     8.7692 C0            1 RES     
     154 C0          21.3640    19.5996     9.2549 C0            1 RES     
     155 C0          21.0629    19.9680    10.7214 C0            1 RES     
     156 C0          22.1271    19.4617    11.7207 C0            1 RES     
     157 C0          21.8956    19.8700    13.1892 C0            1 RES     
     158 C0          22.3286    21.2951    13.6100 C0            1 RES     
     159 C0          21.5709    22.4943    13.0212 C0            1 RES     
     160 C0          20.0675    22.4334    13.2841 C0            1 RES     
     161 H6          23.2554    10.5400     9.1779 H6            1 RES     
     162 H6          23.9567     9.5317     7.8737 H6            1 RES     
     163 H6          21.9740     9.9069     6.4924 H6            1 RES     
     164 H6          21.1295    10.7850     7.7942 H6            1 RES     
     165 H6          23.6125    11.6859     6.2189 H6            1 RES     
     166 H6          21.9134    12.2427     6.0634 H6            1 RES     
     167 H6          23.8299    12.7744     8.4101 H6            1 RES     
     168 H6          23.1208    13.9089     7.2194 H6            1 RES     
     169 H6          20.7631    13.2090     8.2581 H6            1 RES     
     170 H6          21.7406    12.3402     9.4905 H6            1 RES     
     171 H6          22.9254    14.5908     9.9766 H6            1 RES     
     172 H6          21.2003    14.4399    10.4710 H6            1 RES     
     173 H6          22.0220    15.7744     7.8138 H6            1 RES     
     174 H6          20.3720    15.5806     8.5148 H6            1 RES     
     175 H6          21.1450    16.9248    10.5145 H6            1 RES     
     176 H6          22.7369    17.1859     9.6559 H6            1 RES     
     177 H6          21.3206    18.1373     7.7041 H6            1 RES     
     178 H6          19.8979    18.0458     8.7975 H6            1 RES     
     179 H6          22.4309    19.8229     9.0380 H6            1 RES     
     180 H6          20.7542    20.2771     8.6160 H6            1 RES     
     181 H6          20.0395    19.6381    11.0029 H6            1 RES     
     182 H6          21.0745    21.0644    10.7423 H6            1 RES     
     183 H6          22.1059    18.3630    11.7209 H6            1 RES     
     184 H6          23.1482    19.7725    11.4103 H6            1 RES     
     185 H6          22.5480    19.2005    13.7938 H6            1 RES     
     186 H6          20.8501    19.6487    13.4907 H6            1 RES     
     187 H6          22.2134    21.3482    14.7151 H6            1 RES     
     188 H6          23.4101    21.4226    13.3849 H6            1 RES     
     189 H6          21.9713    23.4153    13.4975 H6            1 RES     
     190 H6          21.7755    22.6033    11.9422 H6            1 RES     
     191 H6          19.8706    22.3803    14.3758 H6            1 RES     
     192 H6          19.5844    23.3467    12.8780 H6            1 RES     
     193 H6          19.6132    21.5518    12.7878 H6            1 RES     
     194 C0          22.0270     7.4023     8.0024 C0            1 RES     
     195 C0          20.6737     7.4794     7.2539 C0            1 RES     
     196 C0          20.4183     6.4543     6.1277 C0            1 RES     
     197 C0          21.1089     6.6990     4.7632 C0            1 RES     
     198 C0          20.9049     8.1372     4.2430 C0            1 RES     
     199 C0          21.2028     8.3456     2.7512 C0            1 RES     
     200 C0          20.0297     7.8836     1.8712 C0            1 RES     
     201 C0          20.2852     8.1780     0.3857 C0            1 RES     
     202 C0          19.0287     7.8820    -0.4438 C0            1 RES     
     203 C0          19.1954     7.8649    -1.9787 C0            1 RES     
     204 C0          19.6242     9.1615    -2.6981 C0            1 RES     
     205 C0          21.1358     9.4586    -2.6225 C0            1 RES     
     206 C0          21.5996    10.6973    -3.4182 C0            1 RES     
     207 C0          21.8189    10.5284    -4.9424 C0            1 RES     
     208 C0          20.5973    10.2695    -5.8376 C0            1 RES     
     209 C0          19.5281    11.3529    -5.7112 C0            1 RES     
     210 H6          22.8764     7.3421     7.2881 H6            1 RES     
     211 H6          21.9956     6.4341     8.5508 H6            1 RES     
     212 H6          19.8986     7.2706     8.0200 H6            1 RES     
     213 H6          20.4644     8.4768     6.8450 H6            1 RES     
     214 H6          20.6223     5.4222     6.4851 H6            1 RES     
     215 H6          19.3276     6.5162     5.9142 H6            1 RES     
     216 H6          22.1985     6.4847     4.8124 H6            1 RES     
     217 H6          20.6517     5.9746     4.0563 H6            1 RES     
     218 H6          19.8740     8.5031     4.4448 H6            1 RES     
     219 H6          21.6138     8.7642     4.7999 H6            1 RES     
     220 H6          22.1633     7.8611     2.4694 H6            1 RES     
     221 H6          21.3069     9.4399     2.5848 H6            1 RES     
     222 H6          19.8417     6.7979     2.0067 H6            1 RES     
     223 H6          19.1212     8.4435     2.1901 H6            1 RES     
     224 H6          20.5275     9.2537     0.2866 H6            1 RES     
     225 H6          21.1372     7.5540     0.0404 H6            1 RES     
     226 H6          18.6686     6.8652    -0.1720 H6            1 RES     
     227 H6          18.2336     8.6081    -0.1618 H6            1 RES     
     228 H6          19.8702     7.0363    -2.2841 H6            1 RES     
     229 H6          18.1810     7.6163    -2.3639 H6            1 RES     
     230 H6          19.0194    10.0233    -2.3413 H6            1 RES     
     231 H6          19.3661     8.9935    -3.7512 H6            1 RES     
     232 H6          21.3858     9.6740    -1.5741 H6            1 RES     
     233 H6          21.7350     8.5770    -2.9371 H6            1 RES     
     234 H6          22.6127    10.9419    -3.0271 H6            1 RES     
     235 H6          20.9532    11.5706    -3.1883 H6            1 RES     
     236 H6          22.2892    11.4702    -5.3024 H6            1 RES     
     237 H6          22.5526     9.7099    -5.1100 H6            1 RES     
     238 H6          20.9485    10.2502    -6.8924 H6            1 RES     
     239 H6          20.1671     9.2710    -5.6474 H6            1 RES     
     240 H6          19.9571    12.3467    -5.9602 H6            1 RES     
     241 H6          18.6982    11.1367    -6.4162 H6            1 RES     
     242 H6          19.1122    11.3808    -4.6835 H6            1 RES     
     243 C0          33.1086     2.8752    12.8743 C0            1 RES     
     244 C1          31.7559     3.4460    13.3485 C1            1 RES     
     245 C1          31.3513     3.0140    14.7022 C1            1 RES     
     246 S2          29.5572     2.8850    14.6548 S2            1 RES     
     247 C1          29.6833     4.2697    13.5011 C1            1 RES     
     248 C1          30.8667     4.2580    12.7869 C1            1 RES     
     249 C1          32.2331     1.8674    14.8623 C1            1 RES     
     250 C1          33.2183     1.7715    13.9227 C1            1 RES     
     251 C1          34.0951     0.6983    14.1634 C1            1 RES     
     252 C1          33.7594     0.0101    15.3540 C1            1 RES     
     253 S2          32.4003     0.7395    16.0649 S2            1 RES     
     254 H3          30.9648     4.7552    11.8358 H3            1 RES     
     255 H3          34.9325     0.4443    13.5256 H3            1 RES     
     256 N4          35.2051    -1.9692    15.1113 N4            1 RES     
     257 C1          35.8086    -3.1132    15.5512 C1            1 RES     
     258 C1          35.6827    -3.5247    16.8835 C1            1 RES     
     259 C1          34.9313    -2.7393    17.7486 C1            1 RES     
     260 N4          34.7572    -3.0269    19.0617 N4            1 RES     
     261 S2          33.8124    -1.7726    19.5734 S2            1 RES     
     262 N4          33.5913    -0.8679    18.2089 N4            1 RES     
     263 C1          34.2931    -1.5612    17.2738 C1            1 RES     
     264 C1          34.4385    -1.1804    15.9224 C1            1 RES     
     265 H5          36.3865    -3.7142    14.8610 H5            1 RES     
     266 C0          34.2515     3.9143    13.1154 C0            1 RES     
     267 C0          34.1191     5.1829    12.2670 C0            1 RES     
     268 C0          35.1215     6.3029    12.5628 C0            1 RES     
     269 C0          35.0591     6.9007    13.9774 C0            1 RES     
     270 C0          33.6250     7.2264    14.4429 C0            1 RES     
     271 C0          33.6114     8.0788    15.7176 C0            1 RES     
     272 C0          33.8743     9.5566    15.3881 C0            1 RES     
     273 C0          33.9295    10.4153    16.6522 C0            1 RES     
     274 C0          33.9690    11.9021    16.2856 C0            1 RES     
     275 C0          34.3226    12.8794    17.4244 C0            1 RES     
     276 C0          33.4353    12.8829    18.6853 C0            1 RES     
     277 C0          33.7704    11.7530    19.6845 C0            1 RES     
     278 C0          32.9496    11.7658    20.9894 C0            1 RES     
     279 C0          33.3966    12.7425    22.1037 C0            1 RES     
     280 C0          33.2626    14.2516    21.8516 C0            1 RES     
     281 C0          31.8374    14.6692    21.4945 C0            1 RES     
     282 H6          34.2158     4.2100    14.1854 H6            1 RES     
     283 H6          35.2438     3.4474    12.9319 H6            1 RES     
     284 H6          34.2791     4.9093    11.2254 H6            1 RES     
     285 H6          33.1043     5.6099    12.3691 H6            1 RES     
     286 H6          36.1594     5.9629    12.3560 H6            1 RES     
     287 H6          34.8870     7.1207    11.8449 H6            1 RES     
     288 H6          35.5099     6.1998    14.7130 H6            1 RES     
     289 H6          35.6927     7.8112    13.9531 H6            1 RES     
     290 H6          33.0406     7.7479    13.6535 H6            1 RES     
     291 H6          33.1195     6.2610    14.6593 H6            1 RES     
     292 H6          34.3398     7.6730    16.4542 H6            1 RES     
     293 H6          32.5966     8.0239    16.1694 H6            1 RES     
     294 H6          34.8305     9.6849    14.8399 H6            1 RES     
     295 H6          33.0445     9.9098    14.7351 H6            1 RES     
     296 H6          33.0121    10.2260    17.2455 H6            1 RES     
     297 H6          34.8369    10.1283    17.2273 H6            1 RES     
     298 H6          34.7422    12.0602    15.5013 H6            1 RES     
     299 H6          32.9831    12.1769    15.8479 H6            1 RES     
     300 H6          35.3836    12.7509    17.7295 H6            1 RES     
     301 H6          34.2376    13.8884    16.9622 H6            1 RES     
     302 H6          32.3600    12.8823    18.4039 H6            1 RES     
     303 H6          33.6486    13.8408    19.1746 H6            1 RES     
     304 H6          33.5383    10.7903    19.2081 H6            1 RES     
     305 H6          34.8539    11.7461    19.9329 H6            1 RES     
     306 H6          33.0889    10.7583    21.4422 H6            1 RES     
     307 H6          31.8669    11.8633    20.7630 H6            1 RES     
     308 H6          32.7799    12.5061    22.9988 H6            1 RES     
     309 H6          34.4553    12.5265    22.3665 H6            1 RES     
     310 H6          33.5571    14.7787    22.7849 H6            1 RES     
     311 H6          33.9750    14.5909    21.0800 H6            1 RES     
     312 H6          31.1365    14.3729    22.3034 H6            1 RES     
     313 H6          31.7956    15.7718    21.3718 H6            1 RES     
     314 H6          31.5140    14.2026    20.5419 H6            1 RES     
     315 C0          33.1150     2.2333    11.4256 C0            1 RES     
     316 C0          32.3288     3.0158    10.3452 C0            1 RES     
     317 C0          32.4489     2.5352     8.8827 C0            1 RES     
     318 C0          33.7404     2.9009     8.1100 C0            1 RES     
     319 C0          34.0943     4.3988     8.2188 C0            1 RES     
     320 C0          35.1033     4.9133     7.1819 C0            1 RES     
     321 C0          34.4293     5.1926     5.8284 C0            1 RES     
     322 C0          35.4157     5.7967     4.8180 C0            1 RES     
     323 C0          34.6785     6.2382     3.5468 C0            1 RES     
     324 C0          35.5518     6.6140     2.3302 C0            1 RES     
     325 C0          36.5153     7.8145     2.4446 C0            1 RES     
     326 C0          37.8316     7.5028     3.1856 C0            1 RES     
     327 C0          38.8504     8.6618     3.2250 C0            1 RES     
     328 C0          39.7341     8.8813     1.9716 C0            1 RES     
     329 C0          39.0654     9.3621     0.6746 C0            1 RES     
     330 C0          38.3001    10.6721     0.8513 C0            1 RES     
     331 H6          34.1723     2.0803    11.1188 H6            1 RES     
     332 H6          32.6375     1.2282    11.4547 H6            1 RES     
     333 H6          31.2580     2.8888    10.6072 H6            1 RES     
     334 H6          32.5392     4.0935    10.3560 H6            1 RES     
     335 H6          32.2519     1.4440     8.8124 H6            1 RES     
     336 H6          31.6289     3.0510     8.3343 H6            1 RES     
     337 H6          34.6084     2.2994     8.4569 H6            1 RES     
     338 H6          33.5458     2.6362     7.0491 H6            1 RES     
     339 H6          33.1862     5.0389     8.1656 H6            1 RES     
     340 H6          34.5573     4.5298     9.2058 H6            1 RES     
     341 H6          35.9663     4.2177     7.0925 H6            1 RES     
     342 H6          35.4850     5.8908     7.5490 H6            1 RES     
     343 H6          33.9922     4.2624     5.4087 H6            1 RES     
     344 H6          33.6078     5.9249     5.9997 H6            1 RES     
     345 H6          35.8800     6.6874     5.2835 H6            1 RES     
     346 H6          36.1890     5.0362     4.5770 H6            1 RES     
     347 H6          34.0422     5.3915     3.2064 H6            1 RES     
     348 H6          34.0040     7.0867     3.7997 H6            1 RES     
     349 H6          36.1144     5.7258     1.9701 H6            1 RES     
     350 H6          34.8187     6.8783     1.5351 H6            1 RES     
     351 H6          35.9944     8.6914     2.8868 H6            1 RES     
     352 H6          36.7650     8.0703     1.4073 H6            1 RES     
     353 H6          37.5865     7.2931     4.2363 H6            1 RES     
     354 H6          38.3237     6.5980     2.7677 H6            1 RES     
     355 H6          39.5787     8.3928     4.0227 H6            1 RES     
     356 H6          38.3569     9.6014     3.5520 H6            1 RES     
     357 H6          40.4923     9.6474     2.2472 H6            1 RES     
     358 H6          40.2833     7.9398     1.7515 H6            1 RES     
     359 H6          39.8668     9.5274    -0.0784 H6            1 RES     
     360 H6          38.4117     8.5813     0.2489 H6            1 RES     
     361 H6          38.9800    11.4665     1.2258 H6            1 RES     
     362 H6          37.8843    10.9917    -0.1273 H6            1 RES     
     363 H6          37.4580    10.5460     1.5618 H6            1 RES     
     364 C0          39.3956    -7.2449    17.5696 C0            1 RES     
     365 C1          38.1215    -6.3865    17.7119 C1            1 RES     
     366 C1          37.0437    -7.0189    18.5001 C1            1 RES     
     367 S2          35.5046    -6.4639    17.7511 S2            1 RES     
     368 C1          36.4337    -4.9474    17.4332 C1            1 RES     
     369 C1          37.7865    -5.1795    17.2691 C1            1 RES     
     370 C1          37.4992    -8.4007    18.4651 C1            1 RES     
     371 C1          38.7735    -8.5684    18.0062 C1            1 RES     
     372 C1          39.2004    -9.9072    18.0675 C1            1 RES     
     373 C1          38.2098   -10.7430    18.6366 C1            1 RES     
     374 S2          36.8479    -9.8119    19.0400 S2            1 RES     
     375 H3          38.4219    -4.4961    16.7300 H3            1 RES     
     376 H3          40.1732   -10.2495    17.7369 H3            1 RES     
     377 N4          39.1787   -12.9475    18.1187 N4            1 RES     
     378 C1          39.2627   -14.3077    18.2149 C1            1 RES     
     379 C1          38.4377   -15.0174    19.0959 C1            1 RES     
     380 C1          37.5335   -14.3040    19.8726 C1            1 RES     
     381 N4          36.7006   -14.8811    20.7730 N4            1 RES     
     382 S2          35.8909   -13.5790    21.3868 S2            1 RES     
     383 N4          36.5300   -12.2975    20.5630 N4            1 RES     
     384 C1          37.4432   -12.8908    19.7495 C1            1 RES     
     385 C1          38.2879   -12.2097    18.8467 C1            1 RES     
     386 H5          39.9706   -14.8462    17.5982 H5            1 RES     
     387 C0          40.4614    -6.8154    18.6296 C0            1 RES     
     388 C0          41.0006    -5.3968    18.4205 C0            1 RES     
     389 C0          41.9358    -4.8607    19.5089 C0            1 RES     
     390 C0          41.3224    -4.7264    20.9118 C0            1 RES     
     391 C0          39.9350    -4.0522    20.9127 C0            1 RES     
     392 C0          39.4798    -3.6697    22.3262 C0            1 RES     
     393 C0          40.1501    -2.3635    22.7800 C0            1 RES     
     394 C0          39.7602    -1.9973    24.2126 C0            1 RES     
     395 C0          40.2587    -0.5907    24.5580 C0            1 RES     
     396 C0          40.2073    -0.1920    26.0465 C0            1 RES     
     397 C0          38.8452    -0.2361    26.7675 C0            1 RES     
     398 C0          38.4346    -1.6506    27.2345 C0            1 RES     
     399 C0          37.1102    -1.7237    28.0203 C0            1 RES     
     400 C0          37.1504    -1.3523    29.5223 C0            1 RES     
     401 C0          37.4500     0.1036    29.9087 C0            1 RES     
     402 C0          36.4814     1.0979    29.2712 C0            1 RES     
     403 H6          39.9769    -6.8562    19.6281 H6            1 RES     
     404 H6          41.3082    -7.5360    18.6406 H6            1 RES     
     405 H6          41.5824    -5.3902    17.5002 H6            1 RES     
     406 H6          40.1658    -4.6793    18.3168 H6            1 RES     
     407 H6          42.8573    -5.4790    19.5716 H6            1 RES     
     408 H6          42.2373    -3.8414    19.1782 H6            1 RES     
     409 H6          41.2203    -5.7266    21.3860 H6            1 RES     
     410 H6          42.0539    -4.1464    21.5114 H6            1 RES     
     411 H6          39.9133    -3.1458    20.2687 H6            1 RES     
     412 H6          39.2106    -4.7841    20.4953 H6            1 RES     
     413 H6          39.6725    -4.5109    23.0285 H6            1 RES     
     414 H6          38.3839    -3.4807    22.3063 H6            1 RES     
     415 H6          41.2562    -2.4378    22.7301 H6            1 RES     
     416 H6          39.8204    -1.5564    22.0876 H6            1 RES     
     417 H6          38.6540    -2.0043    24.2880 H6            1 RES     
     418 H6          40.2065    -2.7514    24.8972 H6            1 RES     
     419 H6          41.3267    -0.5024    24.2587 H6            1 RES     
     420 H6          39.6771     0.1408    23.9533 H6            1 RES     
     421 H6          40.9451    -0.7826    26.6313 H6            1 RES     
     422 H6          40.5519     0.8663    26.0635 H6            1 RES     
     423 H6          38.0587     0.2388    26.1420 H6            1 RES     
     424 H6          38.9804     0.3880    27.6590 H6            1 RES     
     425 H6          38.2762    -2.2758    26.3449 H6            1 RES     
     426 H6          39.2425    -2.1253    27.8325 H6            1 RES     
     427 H6          36.8169    -2.7977    28.0159 H6            1 RES     
     428 H6          36.3102    -1.1758    27.4794 H6            1 RES     
     429 H6          36.1483    -1.5995    29.9371 H6            1 RES     
     430 H6          37.8895    -2.0070    30.0339 H6            1 RES     
     431 H6          37.3586     0.1869    31.0133 H6            1 RES     
     432 H6          38.4950     0.3704    29.6748 H6            1 RES     
     433 H6          35.4367     0.8539    29.5583 H6            1 RES     
     434 H6          36.7188     2.1231    29.6249 H6            1 RES     
     435 H6          36.5689     1.0843    28.1658 H6            1 RES     
     436 C0          39.9688    -7.3877    16.0992 C0            1 RES     
     437 C0          39.9642    -6.0914    15.2521 C0            1 RES     
     438 C0          40.6728    -6.1292    13.8807 C0            1 RES     
     439 C0          42.2196    -6.0502    13.8687 C0            1 RES     
     440 C0          42.7622    -4.8885    14.7270 C0            1 RES     
     441 C0          44.2222    -4.4972    14.4567 C0            1 RES     
     442 C0          44.3464    -3.6060    13.2099 C0            1 RES     
     443 C0          45.7919    -3.1351    12.9915 C0            1 RES     
     444 C0          45.8542    -2.1018    11.8589 C0            1 RES     
     445 C0          47.2569    -1.7304    11.3313 C0            1 RES     
     446 C0          48.2611    -1.0556    12.2898 C0            1 RES     
     447 C0          48.9736    -2.0296    13.2504 C0            1 RES     
     448 C0          50.0529    -1.3895    14.1493 C0            1 RES     
     449 C0          51.4517    -1.1492    13.5282 C0            1 RES     
     450 C0          51.5927    -0.0986    12.4161 C0            1 RES     
     451 C0          51.1078     1.2857    12.8420 C0            1 RES     
     452 H6          40.9912    -7.8184    16.1659 H6            1 RES     
     453 H6          39.3502    -8.1096    15.5202 H6            1 RES     
     454 H6          38.8972    -5.8899    15.0240 H6            1 RES     
     455 H6          40.3491    -5.2196    15.7977 H6            1 RES     
     456 H6          40.3252    -7.0003    13.2851 H6            1 RES     
     457 H6          40.3331    -5.2129    13.3477 H6            1 RES     
     458 H6          42.6800    -7.0005    14.2158 H6            1 RES     
     459 H6          42.5085    -5.9007    12.8068 H6            1 RES     
     460 H6          42.1344    -3.9759    14.6247 H6            1 RES     
     461 H6          42.7123    -5.2324    15.7686 H6            1 RES     
     462 H6          44.8687    -5.4003    14.4009 H6            1 RES     
     463 H6          44.5638    -3.8813    15.3169 H6            1 RES     
     464 H6          43.9917    -4.1444    12.3062 H6            1 RES     
     465 H6          43.7035    -2.7097    13.3643 H6            1 RES     
     466 H6          46.1404    -2.6549    13.9262 H6            1 RES     
     467 H6          46.4214    -4.0181    12.7498 H6            1 RES     
     468 H6          45.3072    -2.5170    10.9838 H6            1 RES     
     469 H6          45.3207    -1.1806    12.1841 H6            1 RES     
     470 H6          47.7380    -2.6143    10.8597 H6            1 RES     
     471 H6          47.0606    -0.9954    10.5186 H6            1 RES     
     472 H6          47.7743    -0.2212    12.8398 H6            1 RES     
     473 H6          49.0208    -0.6155    11.6317 H6            1 RES     
     474 H6          48.2205    -2.4347    13.9409 H6            1 RES     
     475 H6          49.4187    -2.8853    12.6981 H6            1 RES     
     476 H6          50.2430    -2.1278    14.9604 H6            1 RES     
     477 H6          49.6568    -0.4758    14.6407 H6            1 RES     
     478 H6          52.1185    -0.8306    14.3599 H6            1 RES     
     479 H6          51.8441    -2.1164    13.1448 H6            1 RES     
     480 H6          52.6712    -0.0235    12.1560 H6            1 RES     
     481 H6          51.0843    -0.4243    11.4921 H6            1 RES     
     482 H6          51.6657     1.6289    13.7390 H6            1 RES     
     483 H6          51.2817     2.0079    12.0169 H6            1 RES     
     484 H6          50.0223     1.2727    13.0688 H6            1 RES     
     485 C0          40.5656   -19.8605    19.4313 C0            1 RES     
     486 C1          39.5734   -18.6792    19.4503 C1            1 RES     
     487 C1          38.1503   -19.0763    19.4394 C1            1 RES     
     488 S2          37.2983   -17.8037    18.4947 S2            1 RES     
     489 C1          38.5412   -16.7099    19.2178 C1            1 RES     
     490 C1          39.7331   -17.3604    19.4766 C1            1 RES     
     491 C1          38.2882   -20.4526    18.9871 C1            1 RES     
     492 C1          39.5664   -20.9309    19.0008 C1            1 RES     
     493 C1          39.6421   -22.2872    18.6361 C1            1 RES     
     494 C1          38.3589   -22.8313    18.3889 C1            1 RES     
     495 S2          37.1808   -21.6305    18.6230 S2            1 RES     
     496 H3          40.6681   -16.8301    19.5540 H3            1 RES     
     497 H3          40.5667   -22.8473    18.5715 H3            1 RES     
     498 N4          39.0072   -24.9796    17.3733 N4            1 RES     
     499 C1          38.7684   -26.2399    16.9031 C1            1 RES     
     500 C1          37.5025   -26.8249    17.0283 C1            1 RES     
     501 C1          36.4956   -26.0934    17.6454 C1            1 RES     
     502 N4          35.2394   -26.5641    17.8403 N4            1 RES     
     503 S2          34.5060   -25.2992    18.6083 S2            1 RES     
     504 N4          35.6966   -24.1582    18.7066 N4            1 RES     
     505 C1          36.7522   -24.7760    18.1136 C1            1 RES     
     506 C1          38.0399   -24.2171    17.9654 C1            1 RES     
     507 H5          39.5647   -26.7924    16.4214 H5            1 RES     
     508 C0          41.0552   -20.1823    20.8806 C0            1 RES     
     509 C0          41.8931   -19.0647    21.5097 C0            1 RES     
     510 C0          42.2780   -19.2531    22.9804 C0            1 RES     
     511 C0          41.1081   -19.3235    23.9747 C0            1 RES     
     512 C0          40.0507   -18.2218    23.7568 C0            1 RES     
     513 C0          39.0595   -18.1340    24.9235 C0            1 RES     
     514 C0          39.6709   -17.3587    26.1011 C0            1 RES     
     515 C0          38.7233   -17.3147    27.3005 C0            1 RES     
     516 C0          39.2589   -16.3560    28.3684 C0            1 RES     
     517 C0          38.5809   -16.4233    29.7515 C0            1 RES     
     518 C0          37.0610   -16.1773    29.8322 C0            1 RES     
     519 C0          36.2107   -17.4141    29.4653 C0            1 RES     
     520 C0          34.6865   -17.2266    29.6010 C0            1 RES     
     521 C0          34.0751   -17.3554    31.0170 C0            1 RES     
     522 C0          34.4304   -16.2926    32.0673 C0            1 RES     
     523 C0          34.0991   -14.8733    31.6105 C0            1 RES     
     524 H6          40.1549   -20.3355    21.5127 H6            1 RES     
     525 H6          41.6349   -21.1311    20.8913 H6            1 RES     
     526 H6          42.8326   -19.0004    20.9632 H6            1 RES     
     527 H6          41.3673   -18.0957    21.4254 H6            1 RES     
     528 H6          42.9170   -20.1541    23.1047 H6            1 RES     
     529 H6          42.8928   -18.3655    23.2517 H6            1 RES     
     530 H6          40.5993   -20.3093    23.9031 H6            1 RES     
     531 H6          41.5608   -19.2548    24.9854 H6            1 RES     
     532 H6          40.5164   -17.2238    23.6027 H6            1 RES     
     533 H6          39.4873   -18.4809    22.8348 H6            1 RES     
     534 H6          38.7250   -19.1540    25.2161 H6            1 RES     
     535 H6          38.1672   -17.5612    24.5878 H6            1 RES     
     536 H6          40.6276   -17.8134    26.4317 H6            1 RES     
     537 H6          39.8766   -16.3216    25.7521 H6            1 RES     
     538 H6          37.7384   -16.9392    26.9562 H6            1 RES     
     539 H6          38.6314   -18.3452    27.7081 H6            1 RES     
     540 H6          40.3339   -16.5798    28.5482 H6            1 RES     
     541 H6          39.1923   -15.3196    27.9679 H6            1 RES     
     542 H6          38.8182   -17.3864    30.2527 H6            1 RES     
     543 H6          39.0738   -15.6194    30.3429 H6            1 RES     
     544 H6          36.7788   -15.2866    29.2302 H6            1 RES     
     545 H6          36.8721   -15.9379    30.8856 H6            1 RES     
     546 H6          36.3787   -17.6466    28.4045 H6            1 RES     
     547 H6          36.5243   -18.3044    30.0524 H6            1 RES     
     548 H6          34.2284   -18.0668    29.0320 H6            1 RES     
     549 H6          34.3666   -16.2913    29.0952 H6            1 RES     
     550 H6          32.9705   -17.3301    30.8890 H6            1 RES     
     551 H6          34.3361   -18.3541    31.4308 H6            1 RES     
     552 H6          33.8402   -16.5110    32.9835 H6            1 RES     
     553 H6          35.4892   -16.3697    32.3690 H6            1 RES     
     554 H6          33.0196   -14.7919    31.3627 H6            1 RES     
     555 H6          34.3329   -14.1586    32.4273 H6            1 RES     
     556 H6          34.6999   -14.5918    30.7219 H6            1 RES     
     557 C0          41.7316   -19.7630    18.3628 C0            1 RES     
     558 C0          42.3851   -18.3671    18.2133 C0            1 RES     
     559 C0          43.6402   -18.2554    17.3209 C0            1 RES     
     560 C0          44.9861   -18.7467    17.9091 C0            1 RES     
     561 C0          45.2667   -18.1715    19.3131 C0            1 RES     
     562 C0          46.7225   -18.2793    19.7892 C0            1 RES     
     563 C0          47.5984   -17.1705    19.1831 C0            1 RES     
     564 C0          49.0325   -17.2180    19.7308 C0            1 RES     
     565 C0          49.8284   -15.9947    19.2572 C0            1 RES     
     566 C0          51.3544   -16.0235    19.4910 C0            1 RES     
     567 C0          51.8876   -16.0763    20.9386 C0            1 RES     
     568 C0          51.8489   -17.4794    21.5779 C0            1 RES     
     569 C0          52.4682   -17.5727    22.9887 C0            1 RES     
     570 C0          54.0099   -17.6883    23.0878 C0            1 RES     
     571 C0          54.8669   -16.4845    22.6673 C0            1 RES     
     572 C0          54.5174   -15.2102    23.4334 C0            1 RES     
     573 H6          42.4916   -20.5363    18.6073 H6            1 RES     
     574 H6          41.3381   -20.0043    17.3498 H6            1 RES     
     575 H6          41.6195   -17.7324    17.7211 H6            1 RES     
     576 H6          42.6235   -17.8982    19.1772 H6            1 RES     
     577 H6          43.4578   -18.7225    16.3294 H6            1 RES     
     578 H6          43.7824   -17.1651    17.1468 H6            1 RES     
     579 H6          45.0295   -19.8563    17.9589 H6            1 RES     
     580 H6          45.7704   -18.4075    17.1997 H6            1 RES     
     581 H6          44.9555   -17.1062    19.3887 H6            1 RES     
     582 H6          44.6590   -18.7637    20.0100 H6            1 RES     
     583 H6          47.1271   -19.2965    19.5936 H6            1 RES     
     584 H6          46.7237   -18.1133    20.8885 H6            1 RES     
     585 H6          47.6219   -17.2505    18.0761 H6            1 RES     
     586 H6          47.1484   -16.1897    19.4586 H6            1 RES     
     587 H6          48.9776   -17.1963    20.8364 H6            1 RES     
     588 H6          49.5153   -18.1565    19.3837 H6            1 RES     
     589 H6          49.6975   -15.9041    18.1563 H6            1 RES     
     590 H6          49.3954   -15.0821    19.7247 H6            1 RES     
     591 H6          51.8199   -16.8409    18.8992 H6            1 RES     
     592 H6          51.7179   -15.0633    19.0604 H6            1 RES     
     593 H6          51.3701   -15.3235    21.5721 H6            1 RES     
     594 H6          52.9385   -15.7711    20.8591 H6            1 RES     
     595 H6          50.7950   -17.7655    21.7016 H6            1 RES     
     596 H6          52.3276   -18.2350    20.9182 H6            1 RES     
     597 H6          52.0995   -18.5329    23.4143 H6            1 RES     
     598 H6          52.0719   -16.7657    23.6407 H6            1 RES     
     599 H6          54.2453   -17.8951    24.1554 H6            1 RES     
     600 H6          54.3410   -18.5729    22.5010 H6            1 RES     
     601 H6          55.9295   -16.7353    22.8776 H6            1 RES     
     602 H6          54.8098   -16.3145    21.5782 H6            1 RES     
     603 H6          54.6332   -15.3748    24.5257 H6            1 RES     
     604 H6          55.2014   -14.3929    23.1222 H6            1 RES     
     605 H6          53.4767   -14.8922    23.2194 H6            1 RES     
     606 C0          38.2219   -31.9779    16.0159 C0            1 RES     
     607 C1          37.5929   -30.5779    16.1736 C1            1 RES     
     608 C1          36.3021   -30.4059    15.4758 C1            1 RES     
     609 S2          36.2717   -28.6928    14.9261 S2            1 RES     
     610 C1          37.2034   -28.3934    16.4448 C1            1 RES     
     611 C1          37.9739   -29.4792    16.8164 C1            1 RES     
     612 C1          36.3685   -31.5387    14.5645 C1            1 RES     
     613 C1          37.3635   -32.4318    14.8383 C1            1 RES     
     614 C1          37.3388   -33.5500    13.9854 C1            1 RES     
     615 C1          36.2520   -33.4892    13.0804 C1            1 RES     
     616 S2          35.3648   -32.0675    13.3566 S2            1 RES     
     617 H3          38.8408   -29.3750    17.4479 H3            1 RES     
     618 H3          38.0525   -34.3631    14.0304 H3            1 RES     
     619 N4          36.8747   -35.3243    11.5600 N4            1 RES     
     620 C1          36.6496   -36.2118    10.5460 C1            1 RES     
     621 C1          35.3917   -36.3032     9.9380 C1            1 RES     
     622 C1          34.3766   -35.4712    10.3933 C1            1 RES     
     623 N4          33.1159   -35.4857     9.8953 N4            1 RES     
     624 S2          32.3669   -34.3269    10.8029 S2            1 RES     
     625 N4          33.5617   -33.7828    11.8056 N4            1 RES     
     626 C1          34.6290   -34.5393    11.4365 C1            1 RES     
     627 C1          35.9115   -34.4721    12.0223 C1            1 RES     
     628 H5          37.4544   -36.8487    10.2023 H5            1 RES     
     629 C0          37.8857   -32.8676    17.2566 C0            1 RES     
     630 C0          38.5201   -32.3716    18.5598 C0            1 RES     
     631 C0          38.1100   -33.1114    19.8369 C0            1 RES     
     632 C0          36.6189   -33.0393    20.2028 C0            1 RES     
     633 C0          36.0319   -31.6161    20.1065 C0            1 RES     
     634 C0          34.6422   -31.5202    20.7478 C0            1 RES     
     635 C0          34.7538   -31.4053    22.2761 C0            1 RES     
     636 C0          33.3774   -31.3736    22.9416 C0            1 RES     
     637 C0          33.5121   -31.0369    24.4299 C0            1 RES     
     638 C0          32.2571   -31.2559    25.2982 C0            1 RES     
     639 C0          30.9647   -30.5075    24.9153 C0            1 RES     
     640 C0          30.1711   -31.1815    23.7736 C0            1 RES     
     641 C0          28.8373   -30.4994    23.4096 C0            1 RES     
     642 C0          27.6116   -30.8068    24.3033 C0            1 RES     
     643 C0          27.6206   -30.3071    25.7555 C0            1 RES     
     644 C0          27.8315   -28.7980    25.8623 C0            1 RES     
     645 H6          36.7826   -32.8603    17.3857 H6            1 RES     
     646 H6          38.1924   -33.9203    17.0722 H6            1 RES     
     647 H6          39.5986   -32.4969    18.4780 H6            1 RES     
     648 H6          38.2987   -31.2990    18.7116 H6            1 RES     
     649 H6          38.4224   -34.1771    19.7886 H6            1 RES     
     650 H6          38.6795   -32.6319    20.6645 H6            1 RES     
     651 H6          36.0255   -33.7031    19.5372 H6            1 RES     
     652 H6          36.5368   -33.4415    21.2336 H6            1 RES     
     653 H6          36.6987   -30.8593    20.5748 H6            1 RES     
     654 H6          35.9397   -31.3678    19.0275 H6            1 RES     
     655 H6          34.0174   -32.3851    20.4326 H6            1 RES     
     656 H6          34.1500   -30.5897    20.3888 H6            1 RES     
     657 H6          35.3266   -32.2535    22.7049 H6            1 RES     
     658 H6          35.2987   -30.4616    22.5050 H6            1 RES     
     659 H6          32.7715   -30.5810    22.4575 H6            1 RES     
     660 H6          32.9032   -32.3702    22.8057 H6            1 RES     
     661 H6          34.3033   -31.6798    24.8754 H6            1 RES     
     662 H6          33.8483   -29.9792    24.5163 H6            1 RES     
     663 H6          32.0333   -32.3408    25.3886 H6            1 RES     
     664 H6          32.5530   -30.9000    26.3105 H6            1 RES     
     665 H6          31.1842   -29.4406    24.6942 H6            1 RES     
     666 H6          30.3458   -30.5372    25.8201 H6            1 RES     
     667 H6          30.7768   -31.1358    22.8579 H6            1 RES     
     668 H6          29.9857   -32.2551    23.9940 H6            1 RES     
     669 H6          28.5534   -30.9067    22.4131 H6            1 RES     
     670 H6          28.9871   -29.4076    23.2734 H6            1 RES     
     671 H6          26.7316   -30.3435    23.8051 H6            1 RES     
     672 H6          27.4429   -31.9060    24.3149 H6            1 RES     
     673 H6          26.6346   -30.5542    26.2052 H6            1 RES     
     674 H6          28.3682   -30.8505    26.3587 H6            1 RES     
     675 H6          27.0413   -28.2591    25.2980 H6            1 RES     
     676 H6          27.7804   -28.4927    26.9284 H6            1 RES     
     677 H6          28.8257   -28.5072    25.4663 H6            1 RES     
     678 C0          39.7504   -32.0029    15.5989 C0            1 RES     
     679 C0          40.6532   -30.9646    16.3092 C0            1 RES     
     680 C0          42.1766   -31.0614    16.0766 C0            1 RES     
     681 C0          42.9525   -32.1599    16.8448 C0            1 RES     
     682 C0          42.6335   -32.1676    18.3544 C0            1 RES     
     683 C0          43.6317   -32.9345    19.2338 C0            1 RES     
     684 C0          44.8876   -32.0965    19.5249 C0            1 RES     
     685 C0          45.8447   -32.8232    20.4813 C0            1 RES     
     686 C0          46.9909   -31.8939    20.9018 C0            1 RES     
     687 C0          48.1805   -32.5453    21.6399 C0            1 RES     
     688 C0          47.9348   -33.2127    23.0098 C0            1 RES     
     689 C0          47.3229   -34.6261    22.9260 C0            1 RES     
     690 C0          47.1607   -35.3499    24.2797 C0            1 RES     
     691 C0          48.4112   -36.0440    24.8750 C0            1 RES     
     692 C0          49.5805   -35.1698    25.3534 C0            1 RES     
     693 C0          49.1630   -34.1423    26.4036 C0            1 RES     
     694 H6          40.1338   -33.0353    15.7486 H6            1 RES     
     695 H6          39.8507   -31.7742    14.5141 H6            1 RES     
     696 H6          40.3564   -29.9796    15.8934 H6            1 RES     
     697 H6          40.4879   -30.9213    17.3940 H6            1 RES     
     698 H6          42.4034   -31.1155    14.9902 H6            1 RES     
     699 H6          42.5939   -30.0992    16.4496 H6            1 RES     
     700 H6          42.7498   -33.1704    16.4284 H6            1 RES     
     701 H6          44.0294   -31.9378    16.6887 H6            1 RES     
     702 H6          42.5382   -31.1354    18.7580 H6            1 RES     
     703 H6          41.6646   -32.6740    18.4567 H6            1 RES     
     704 H6          43.8738   -33.9230    18.7855 H6            1 RES     
     705 H6          43.1395   -33.1119    20.2147 H6            1 RES     
     706 H6          45.4214   -31.8498    18.5833 H6            1 RES     
     707 H6          44.5613   -31.1470    20.0072 H6            1 RES     
     708 H6          45.2733   -33.1095    21.3853 H6            1 RES     
     709 H6          46.2415   -33.7262    19.9698 H6            1 RES     
     710 H6          47.4228   -31.4420    19.9817 H6            1 RES     
     711 H6          46.5742   -31.0674    21.5201 H6            1 RES     
     712 H6          48.7030   -33.2629    20.9713 H6            1 RES     
     713 H6          48.8846   -31.7032    21.8259 H6            1 RES     
     714 H6          47.3352   -32.5454    23.6663 H6            1 RES     
     715 H6          48.9323   -33.3034    23.4577 H6            1 RES     
     716 H6          46.3054   -34.5304    22.5217 H6            1 RES     
     717 H6          47.9012   -35.2740    22.2324 H6            1 RES     
     718 H6          46.4545   -36.1887    24.0876 H6            1 RES     
     719 H6          46.6666   -34.6844    25.0188 H6            1 RES     
     720 H6          48.0622   -36.6269    25.7561 H6            1 RES     
     721 H6          48.8031   -36.7734    24.1328 H6            1 RES     
     722 H6          50.3413   -35.8412    25.8083 H6            1 RES     
     723 H6          50.0855   -34.6782    24.5039 H6            1 RES     
     724 H6          48.7079   -34.6516    27.2794 H6            1 RES     
     725 H6          50.0567   -33.5786    26.7444 H6            1 RES     
     726 H6          48.4359   -33.4185    25.9823 H6            1 RES     
     727 C0          35.4888   -40.8190     7.1641 C0            1 RES     
     728 C1          35.1472   -39.3993     7.6624 C1            1 RES     
     729 C1          34.4087   -38.5707     6.6873 C1            1 RES     
     730 S2          34.9790   -36.8847     6.9523 S2            1 RES     
     731 C1          35.1091   -37.4075     8.6767 C1            1 RES     
     732 C1          35.3800   -38.7572     8.8021 C1            1 RES     
     733 C1          34.6808   -39.3271     5.4741 C1            1 RES     
     734 C1          35.2283   -40.5598     5.6827 C1            1 RES     
     735 C1          35.3972   -41.2872     4.4908 C1            1 RES     
     736 C1          34.9109   -40.5704     3.3712 C1            1 RES     
     737 S2          34.2958   -39.0722     3.8826 S2            1 RES     
     738 H3          35.8409   -39.1676     9.6856 H3            1 RES     
     739 H3          35.8286   -42.2792     4.4416 H3            1 RES     
     740 N4          35.8138   -41.9709     1.5573 N4            1 RES     
     741 C1          35.9331   -42.3740     0.2574 C1            1 RES     
     742 C1          35.1286   -41.8165    -0.7438 C1            1 RES     
     743 C1          34.2035   -40.8451    -0.3825 C1            1 RES     
     744 N4          33.3591   -40.2511    -1.2608 N4            1 RES     
     745 S2          32.5092   -39.2214    -0.2888 S2            1 RES     
     746 N4          33.1590   -39.4722     1.2092 N4            1 RES     
     747 C1          34.1023   -40.4213     0.9705 C1            1 RES     
     748 C1          34.9338   -41.0026     1.9520 C1            1 RES     
     749 H5          36.6627   -43.1291    -0.0051 H5            1 RES     
     750 C0          34.4344   -41.8473     7.6884 C0            1 RES     
     751 C0          34.4513   -42.0245     9.2100 C0            1 RES     
     752 C0          33.3455   -42.9042     9.8015 C0            1 RES     
     753 C0          31.9075   -42.4038     9.5908 C0            1 RES     
     754 C0          31.7278   -40.9042     9.9042 C0            1 RES     
     755 C0          30.2497   -40.5009     9.9686 C0            1 RES     
     756 C0          29.6370   -40.8901    11.3231 C0            1 RES     
     757 C0          28.1461   -40.5556    11.3849 C0            1 RES     
     758 C0          27.6156   -40.7455    12.8093 C0            1 RES     
     759 C0          26.0829   -40.7365    12.9764 C0            1 RES     
     760 C0          25.3047   -39.4909    12.5072 C0            1 RES     
     761 C0          25.0396   -39.4603    10.9852 C0            1 RES     
     762 C0          24.2041   -38.2638    10.4883 C0            1 RES     
     763 C0          22.6672   -38.3510    10.6494 C0            1 RES     
     764 C0          22.0779   -38.3404    12.0676 C0            1 RES     
     765 C0          22.5012   -37.1161    12.8768 C0            1 RES     
     766 H6          33.4294   -41.4761     7.3959 H6            1 RES     
     767 H6          34.5804   -42.8347     7.1986 H6            1 RES     
     768 H6          35.3897   -42.5047     9.4824 H6            1 RES     
     769 H6          34.3979   -41.0410     9.7125 H6            1 RES     
     770 H6          33.4288   -43.9452     9.4208 H6            1 RES     
     771 H6          33.5310   -42.9322    10.8987 H6            1 RES     
     772 H6          31.5883   -42.5775     8.5402 H6            1 RES     
     773 H6          31.2662   -43.0325    10.2422 H6            1 RES     
     774 H6          32.2223   -40.6171    10.8580 H6            1 RES     
     775 H6          32.2131   -40.3336     9.0836 H6            1 RES     
     776 H6          29.6969   -40.9439     9.1107 H6            1 RES     
     777 H6          30.1809   -39.3937     9.8889 H6            1 RES     
     778 H6          29.7575   -41.9746    11.5250 H6            1 RES     
     779 H6          30.1780   -40.3230    12.1139 H6            1 RES     
     780 H6          28.0130   -39.4919    11.1014 H6            1 RES     
     781 H6          27.6110   -41.2227    10.6742 H6            1 RES     
     782 H6          27.9550   -41.7334    13.1924 H6            1 RES     
     783 H6          28.0680   -39.9596    13.4548 H6            1 RES     
     784 H6          25.6368   -41.6395    12.5066 H6            1 RES     
     785 H6          25.9217   -40.8282    14.0739 H6            1 RES     
     786 H6          25.8061   -38.5636    12.8596 H6            1 RES     
     787 H6          24.3363   -39.5576    13.0174 H6            1 RES     
     788 H6          26.0051   -39.3716    10.4681 H6            1 RES     
     789 H6          24.5665   -40.4058    10.6419 H6            1 RES     
     790 H6          24.3581   -38.2265     9.3864 H6            1 RES     
     791 H6          24.6101   -37.3142    10.8962 H6            1 RES     
     792 H6          22.2419   -37.4738    10.1136 H6            1 RES     
     793 H6          22.3033   -39.2636    10.1284 H6            1 RES     
     794 H6          20.9703   -38.3311    11.9744 H6            1 RES     
     795 H6          22.3240   -39.2709    12.6077 H6            1 RES     
     796 H6          22.1991   -36.1855    12.3514 H6            1 RES     
     797 H6          22.0072   -37.1416    13.8707 H6            1 RES     
     798 H6          23.5987   -37.1056    13.0361 H6            1 RES     
     799 C0          36.9924   -41.2762     7.3662 C0            1 RES     
     800 C0          37.6281   -40.8979     8.7265 C0            1 RES     
     801 C0          39.0253   -41.4711     9.0486 C0            1 RES     
     802 C0          39.1086   -42.9507     9.4988 C0            1 RES     
     803 C0          38.1122   -43.2855    10.6282 C0            1 RES     
     804 C0          38.3975   -44.5861    11.3930 C0            1 RES     
     805 C0          39.4970   -44.3902    12.4498 C0            1 RES     
     806 C0          39.7181   -45.6630    13.2804 C0            1 RES     
     807 C0          40.6796   -45.3845    14.4433 C0            1 RES     
     808 C0          41.2188   -46.6113    15.2102 C0            1 RES     
     809 C0          40.2235   -47.5144    15.9693 C0            1 RES     
     810 C0          39.4644   -48.5147    15.0736 C0            1 RES     
     811 C0          38.5373   -49.4933    15.8257 C0            1 RES     
     812 C0          39.1886   -50.7381    16.4786 C0            1 RES     
     813 C0          40.1316   -50.5337    17.6742 C0            1 RES     
     814 C0          39.4719   -49.7830    18.8293 C0            1 RES     
     815 H6          37.0482   -42.3722     7.1895 H6            1 RES     
     816 H6          37.6414   -40.7915     6.6027 H6            1 RES     
     817 H6          37.7645   -39.7972     8.6943 H6            1 RES     
     818 H6          36.9764   -41.1187     9.5823 H6            1 RES     
     819 H6          39.7284   -41.2818     8.2093 H6            1 RES     
     820 H6          39.3916   -40.8834     9.9201 H6            1 RES     
     821 H6          38.9375   -43.6466     8.6491 H6            1 RES     
     822 H6          40.1489   -43.1017     9.8574 H6            1 RES     
     823 H6          38.0386   -42.4579    11.3678 H6            1 RES     
     824 H6          37.1349   -43.4091    10.1432 H6            1 RES     
     825 H6          38.6267   -45.4156    10.6886 H6            1 RES     
     826 H6          37.4725   -44.8519    11.9493 H6            1 RES     
     827 H6          40.4524   -44.0899    11.9707 H6            1 RES     
     828 H6          39.1718   -43.5745    13.1350 H6            1 RES     
     829 H6          38.7408   -45.9734    13.6978 H6            1 RES     
     830 H6          40.1266   -46.4548    12.6167 H6            1 RES     
     831 H6          41.5774   -44.8721    14.0322 H6            1 RES     
     832 H6          40.1880   -44.6844    15.1554 H6            1 RES     
     833 H6          41.8463   -47.2391    14.5414 H6            1 RES     
     834 H6          41.8968   -46.1795    15.9804 H6            1 RES     
     835 H6          39.5260   -46.8995    16.5785 H6            1 RES     
     836 H6          40.8460   -48.0906    16.6653 H6            1 RES     
     837 H6          38.8049   -47.9397    14.4086 H6            1 RES     
     838 H6          40.1652   -49.0938    14.4343 H6            1 RES     
     839 H6          37.8611   -49.9197    15.0511 H6            1 RES     
     840 H6          37.8903   -48.9428    16.5410 H6            1 RES     
     841 H6          38.3551   -51.3849    16.8316 H6            1 RES     
     842 H6          39.7372   -51.3069    15.6962 H6            1 RES     
     843 H6          40.4350   -51.5384    18.0418 H6            1 RES     
     844 H6          41.0659   -50.0338    17.3653 H6            1 RES     
     845 H6          38.5642   -50.3245    19.1707 H6            1 RES     
     846 H6          40.1841   -49.7117    19.6780 H6            1 RES     
     847 H6          39.1915   -48.7543    18.5242 H6            1 RES     
     848 C0          35.6590   -45.0236    -4.9306 C0            1 RES     
     849 C1          35.4046   -43.7918    -4.0371 C1            1 RES     
     850 C1          35.3996   -42.5033    -4.7600 C1            1 RES     
     851 S2          36.0895   -41.3004    -3.6132 S2            1 RES     
     852 C1          35.2747   -42.3173    -2.3618 C1            1 RES     
     853 C1          35.1840   -43.6452    -2.7351 C1            1 RES     
     854 C1          36.0653   -42.9135    -5.9874 C1            1 RES     
     855 C1          36.1946   -44.2635    -6.1409 C1            1 RES     
     856 C1          36.7675   -44.6167    -7.3759 C1            1 RES     
     857 C1          37.0258   -43.4765    -8.1740 C1            1 RES     
     858 S2          36.5461   -42.0792    -7.3361 S2            1 RES     
     859 H3          35.0765   -44.4360    -2.0109 H3            1 RES     
     860 H3          36.9675   -45.6359    -7.6825 H3            1 RES     
     861 N4          38.3937   -44.5090    -9.9430 N4            1 RES     
     862 C1          39.0389   -44.5259   -11.1472 C1            1 RES     
     863 C1          38.9371   -43.4451   -12.0314 C1            1 RES     
     864 C1          38.1611   -42.3558   -11.6556 C1            1 RES     
     865 N4          37.9734   -41.2643   -12.4371 N4            1 RES     
     866 S2          36.9812   -40.3307   -11.5035 S2            1 RES     
     867 N4          36.7728   -41.2305   -10.1338 N4            1 RES     
     868 C1          37.5101   -42.3428   -10.3920 C1            1 RES     
     869 C1          37.6398   -43.4487    -9.5245 C1            1 RES     
     870 H5          39.6423   -45.3819   -11.4203 H5            1 RES     
     871 C0          34.3051   -45.7013    -5.3202 C0            1 RES     
     872 C0          33.5577   -46.3119    -4.1305 C0            1 RES     
     873 C0          32.1565   -46.8593    -4.4201 C0            1 RES     
     874 C0          31.1231   -45.8304    -4.9056 C0            1 RES     
     875 C0          31.1112   -44.5326    -4.0720 C0            1 RES     
     876 C0          29.8930   -43.6558    -4.3861 C0            1 RES     
     877 C0          28.6449   -44.1746    -3.6550 C0            1 RES     
     878 C0          27.4035   -43.3531    -4.0051 C0            1 RES     
     879 C0          26.2312   -43.7465    -3.1011 C0            1 RES     
     880 C0          24.8404   -43.2282    -3.5183 C0            1 RES     
     881 C0          24.6407   -41.7058    -3.6592 C0            1 RES     
     882 C0          25.1472   -41.1340    -5.0022 C0            1 RES     
     883 C0          24.9021   -39.6259    -5.2078 C0            1 RES     
     884 C0          23.4918   -39.1893    -5.6727 C0            1 RES     
     885 C0          22.3111   -39.3823    -4.7096 C0            1 RES     
     886 C0          22.5251   -38.6937    -3.3631 C0            1 RES     
     887 H6          33.6565   -44.9204    -5.7707 H6            1 RES     
     888 H6          34.4721   -46.4825    -6.0936 H6            1 RES     
     889 H6          34.1377   -47.1589    -3.7676 H6            1 RES     
     890 H6          33.4631   -45.5718    -3.3146 H6            1 RES     
     891 H6          32.2072   -47.6970    -5.1488 H6            1 RES     
     892 H6          31.7854   -47.2748    -3.4563 H6            1 RES     
     893 H6          31.3182   -45.5580    -5.9656 H6            1 RES     
     894 H6          30.1400   -46.3433    -4.8689 H6            1 RES     
     895 H6          31.1347   -44.7404    -2.9798 H6            1 RES     
     896 H6          32.0303   -43.9642    -4.3305 H6            1 RES     
     897 H6          29.7434   -43.5926    -5.4868 H6            1 RES     
     898 H6          30.0877   -42.6293    -4.0047 H6            1 RES     
     899 H6          28.4405   -45.2359    -3.9067 H6            1 RES     
     900 H6          28.8405   -44.1041    -2.5611 H6            1 RES     
     901 H6          27.6321   -42.2815    -3.8345 H6            1 RES     
     902 H6          27.1552   -43.5376    -5.0732 H6            1 RES     
     903 H6          26.1465   -44.8557    -3.0818 H6            1 RES     
     904 H6          26.4631   -43.4076    -2.0665 H6            1 RES     
     905 H6          24.5071   -43.7245    -4.4552 H6            1 RES     
     906 H6          24.1597   -43.5734    -2.7081 H6            1 RES     
     907 H6          25.0821   -41.1737    -2.7889 H6            1 RES     
     908 H6          23.5543   -41.5615    -3.6188 H6            1 RES     
     909 H6          26.2387   -41.2558    -5.0400 H6            1 RES     
     910 H6          24.7221   -41.6952    -5.8625 H6            1 RES     
     911 H6          25.5681   -39.3247    -6.0476 H6            1 RES     
     912 H6          25.2397   -39.0554    -4.3170 H6            1 RES     
     913 H6          23.5545   -38.1015    -5.8969 H6            1 RES     
     914 H6          23.2516   -39.7090    -6.6260 H6            1 RES     
     915 H6          21.4089   -38.9423    -5.1870 H6            1 RES     
     916 H6          22.0826   -40.4529    -4.5699 H6            1 RES     
     917 H6          22.6987   -37.6068    -3.5111 H6            1 RES     
     918 H6          21.6219   -38.8285    -2.7319 H6            1 RES     
     919 H6          23.3909   -39.1320    -2.8263 H6            1 RES     
     920 C0          36.7612   -46.0359    -4.4097 C0            1 RES     
     921 C0          36.7289   -46.3344    -2.8906 C0            1 RES     
     922 C0          37.6600   -47.4455    -2.3587 C0            1 RES     
     923 C0          37.2282   -48.9152    -2.5871 C0            1 RES     
     924 C0          35.7696   -49.1797    -2.1590 C0            1 RES     
     925 C0          35.3952   -50.6577    -1.9770 C0            1 RES     
     926 C0          35.8697   -51.1972    -0.6177 C0            1 RES     
     927 C0          35.4142   -52.6465    -0.3927 C0            1 RES     
     928 C0          35.7360   -53.0940     1.0393 C0            1 RES     
     929 C0          35.5923   -54.6001     1.3472 C0            1 RES     
     930 C0          34.2011   -55.2579     1.2268 C0            1 RES     
     931 C0          33.7845   -55.6005    -0.2182 C0            1 RES     
     932 C0          32.4404   -56.3478    -0.3517 C0            1 RES     
     933 C0          32.4439   -57.8772    -0.1049 C0            1 RES     
     934 C0          32.7196   -58.3929     1.3158 C0            1 RES     
     935 C0          31.7486   -57.8291     2.3512 C0            1 RES     
     936 H6          36.6801   -46.9722    -5.0032 H6            1 RES     
     937 H6          37.7764   -45.6200    -4.5978 H6            1 RES     
     938 H6          37.0754   -45.4025    -2.3978 H6            1 RES     
     939 H6          35.7186   -46.5433    -2.5145 H6            1 RES     
     940 H6          38.7003   -47.2879    -2.7159 H6            1 RES     
     941 H6          37.6715   -47.3167    -1.2531 H6            1 RES     
     942 H6          37.3523   -49.2172    -3.6497 H6            1 RES     
     943 H6          37.9182   -49.5339    -1.9752 H6            1 RES     
     944 H6          35.5140   -48.6396    -1.2207 H6            1 RES     
     945 H6          35.1404   -48.7893    -2.9698 H6            1 RES     
     946 H6          35.7667   -51.2665    -2.8302 H6            1 RES     
     947 H6          34.2851   -50.7186    -1.9676 H6            1 RES     
     948 H6          36.9755   -51.1397    -0.5373 H6            1 RES     
     949 H6          35.4224   -50.5597     0.1787 H6            1 RES     
     950 H6          34.3172   -52.6868    -0.5364 H6            1 RES     
     951 H6          35.9273   -53.2996    -1.1307 H6            1 RES     
     952 H6          36.8011   -52.8482     1.2454 H6            1 RES     
     953 H6          35.1107   -52.5059     1.7479 H6            1 RES     
     954 H6          36.3273   -55.1867     0.7549 H6            1 RES     
     955 H6          35.8888   -54.6930     2.4163 H6            1 RES     
     956 H6          33.4322   -54.6395     1.7388 H6            1 RES     
     957 H6          34.2894   -56.1989     1.7841 H6            1 RES     
     958 H6          33.6495   -54.6561    -0.7639 H6            1 RES     
     959 H6          34.5777   -56.1796    -0.7386 H6            1 RES     
     960 H6          32.1486   -56.2495    -1.4214 H6            1 RES     
     961 H6          31.6515   -55.8359     0.2390 H6            1 RES     
     962 H6          31.4352   -58.2481    -0.3930 H6            1 RES     
     963 H6          33.1770   -58.3495    -0.7948 H6            1 RES     
     964 H6          32.6082   -59.4992     1.3020 H6            1 RES     
     965 H6          33.7648   -58.2015     1.6144 H6            1 RES     
     966 H6          30.7025   -58.0765     2.0714 H6            1 RES     
     967 H6          31.9666   -58.2760     3.3438 H6            1 RES     
     968 H6          31.8545   -56.7283     2.4353 H6            1 RES     
     969 C0          40.7687   -45.2386   -16.6708 C0            1 RES     
     970 C1          40.3634   -44.3208   -15.4987 C1            1 RES     
     971 C1          40.9556   -42.9682   -15.5490 C1            1 RES     
     972 S2          41.2323   -42.4953   -13.8350 S2            1 RES     
     973 C1          39.7383   -43.4644   -13.5307 C1            1 RES     
     974 C1          39.5806   -44.4942   -14.4393 C1            1 RES     
     975 C1          42.0327   -43.2122   -16.4967 C1            1 RES     
     976 C1          41.9540   -44.4065   -17.1526 C1            1 RES     
     977 C1          42.9664   -44.5640   -18.1162 C1            1 RES     
     978 C1          43.7911   -43.4163   -18.1958 C1            1 RES     
     979 S2          43.2517   -42.2538   -17.0813 S2            1 RES     
     980 H3          38.9884   -45.3666   -14.2167 H3            1 RES     
     981 H3          43.0859   -45.4469   -18.7318 H3            1 RES     
     982 N4          45.6075   -44.3068   -19.6010 N4            1 RES     
     983 C1          46.7325   -44.2027   -20.3692 C1            1 RES     
     984 C1          47.2784   -42.9507   -20.6769 C1            1 RES     
     985 C1          46.6461   -41.8160   -20.1843 C1            1 RES     
     986 N4          47.0715   -40.5533   -20.4338 N4            1 RES     
     987 S2          45.9571   -39.6414   -19.6250 S2            1 RES     
     988 N4          44.9486   -40.7633   -18.9516 N4            1 RES     
     989 C1          45.4870   -41.9389   -19.3708 C1            1 RES     
     990 C1          44.9681   -43.2184   -19.0774 C1            1 RES     
     991 H5          47.2133   -45.0987   -20.7403 H5            1 RES     
     992 C0          39.6635   -45.2282   -17.7765 C0            1 RES     
     993 C0          38.3357   -45.8449   -17.3254 C0            1 RES     
     994 C0          37.1676   -45.7316   -18.3098 C0            1 RES     
     995 C0          36.7149   -44.3026   -18.6498 C0            1 RES     
     996 C0          36.5588   -43.3975   -17.4106 C0            1 RES     
     997 C0          35.8363   -42.0859   -17.7409 C0            1 RES     
     998 C0          34.3167   -42.3037   -17.8128 C0            1 RES     
     999 C0          33.5809   -41.0218   -18.2050 C0            1 RES     
    1000 C0          32.0680   -41.2075   -18.0527 C0            1 RES     
    1001 C0          31.1772   -40.1191   -18.6843 C0            1 RES     
    1002 C0          31.3698   -38.6602   -18.2242 C0            1 RES     
    1003 C0          32.5571   -37.9447   -18.9067 C0            1 RES     
    1004 C0          32.7390   -36.4627   -18.5228 C0            1 RES     
    1005 C0          31.8384   -35.4254   -19.2359 C0            1 RES     
    1006 C0          30.3291   -35.4483   -18.9522 C0            1 RES     
    1007 C0          30.0027   -35.3147   -17.4661 C0            1 RES     
    1008 H6          39.4754   -44.1691   -18.0528 H6            1 RES     
    1009 H6          40.0243   -45.7514   -18.6889 H6            1 RES     
    1010 H6          38.4941   -46.9115   -17.1748 H6            1 RES     
    1011 H6          38.0087   -45.3969   -16.3689 H6            1 RES     
    1012 H6          37.3964   -46.2754   -19.2519 H6            1 RES     
    1013 H6          36.3080   -46.2468   -17.8251 H6            1 RES     
    1014 H6          37.4417   -43.8211   -19.3395 H6            1 RES     
    1015 H6          35.7555   -44.4075   -19.1971 H6            1 RES     
    1016 H6          36.0163   -43.9111   -16.5869 H6            1 RES     
    1017 H6          37.5802   -43.1549   -17.0465 H6            1 RES     
    1018 H6          36.2467   -41.6514   -18.6794 H6            1 RES     
    1019 H6          36.0205   -41.3626   -16.9163 H6            1 RES     
    1020 H6          34.0554   -43.0923   -18.5485 H6            1 RES     
    1021 H6          33.9751   -42.6348   -16.8061 H6            1 RES     
    1022 H6          33.9036   -40.2091   -17.5232 H6            1 RES     
    1023 H6          33.8429   -40.7798   -19.2582 H6            1 RES     
    1024 H6          31.7703   -42.1619   -18.5409 H6            1 RES     
    1025 H6          31.8380   -41.2974   -16.9673 H6            1 RES     
    1026 H6          31.2431   -40.1600   -19.7930 H6            1 RES     
    1027 H6          30.1397   -40.4141   -18.4096 H6            1 RES     
    1028 H6          31.4355   -38.6076   -17.1159 H6            1 RES     
    1029 H6          30.4482   -38.1480   -18.5257 H6            1 RES     
    1030 H6          33.4862   -38.4396   -18.5916 H6            1 RES     
    1031 H6          32.4950   -38.0319   -20.0132 H6            1 RES     
    1032 H6          33.7695   -36.1926   -18.8462 H6            1 RES     
    1033 H6          32.7132   -36.3444   -17.4191 H6            1 RES     
    1034 H6          32.2109   -34.4215   -18.9344 H6            1 RES     
    1035 H6          31.9872   -35.5160   -20.3342 H6            1 RES     
    1036 H6          29.8703   -34.5898   -19.4887 H6            1 RES     
    1037 H6          29.8582   -36.3516   -19.3768 H6            1 RES     
    1038 H6          30.4337   -34.3746   -17.0614 H6            1 RES     
    1039 H6          28.9011   -35.2899   -17.3309 H6            1 RES     
    1040 H6          30.4023   -36.1759   -16.8929 H6            1 RES     
    1041 C0          41.2666   -46.6884   -16.2695 C0            1 RES     
    1042 C0          40.4547   -47.3875   -15.1516 C0            1 RES     
    1043 C0          40.7815   -48.8653   -14.8457 C0            1 RES     
    1044 C0          40.2348   -49.9385   -15.8195 C0            1 RES     
    1045 C0          38.7294   -49.7656   -16.1103 C0            1 RES     
    1046 C0          38.0340   -50.9879   -16.7270 C0            1 RES     
    1047 C0          37.6855   -52.0378   -15.6592 C0            1 RES     
    1048 C0          36.9057   -53.2178   -16.2577 C0            1 RES     
    1049 C0          36.4096   -54.1521   -15.1462 C0            1 RES     
    1050 C0          35.8461   -55.5205   -15.5864 C0            1 RES     
    1051 C0          34.5841   -55.5581   -16.4744 C0            1 RES     
    1052 C0          34.8515   -55.2832   -17.9684 C0            1 RES     
    1053 C0          33.6187   -55.4132   -18.8883 C0            1 RES     
    1054 C0          33.2060   -56.8379   -19.3354 C0            1 RES     
    1055 C0          32.6625   -57.8124   -18.2792 C0            1 RES     
    1056 C0          31.4456   -57.2647   -17.5362 C0            1 RES     
    1057 H6          41.2987   -47.3111   -17.1897 H6            1 RES     
    1058 H6          42.3071   -46.6363   -15.8772 H6            1 RES     
    1059 H6          40.6971   -46.8360   -14.2197 H6            1 RES     
    1060 H6          39.3689   -47.3139   -15.2982 H6            1 RES     
    1061 H6          41.8739   -49.0007   -14.6944 H6            1 RES     
    1062 H6          40.2878   -49.0812   -13.8717 H6            1 RES     
    1063 H6          40.7903   -49.9377   -16.7822 H6            1 RES     
    1064 H6          40.4128   -50.9170   -15.3252 H6            1 RES     
    1065 H6          38.1671   -49.4715   -15.1967 H6            1 RES     
    1066 H6          38.6541   -48.9524   -16.8443 H6            1 RES     
    1067 H6          38.6416   -51.4101   -17.5572 H6            1 RES     
    1068 H6          37.0670   -50.6392   -17.1503 H6            1 RES     
    1069 H6          38.6053   -52.4144   -15.1646 H6            1 RES     
    1070 H6          37.0458   -51.5460   -14.8914 H6            1 RES     
    1071 H6          36.0270   -52.8106   -16.7941 H6            1 RES     
    1072 H6          37.5709   -53.7647   -16.9598 H6            1 RES     
    1073 H6          37.2712   -54.3845   -14.4820 H6            1 RES     
    1074 H6          35.6498   -53.6130   -14.5371 H6            1 RES     
    1075 H6          36.6446   -56.1326   -16.0586 H6            1 RES     
    1076 H6          35.5709   -56.0255   -14.6332 H6            1 RES     
    1077 H6          33.8012   -54.8820   -16.0676 H6            1 RES     
    1078 H6          34.2101   -56.5855   -16.3826 H6            1 RES     
    1079 H6          35.1806   -54.2392   -18.0662 H6            1 RES     
    1080 H6          35.6669   -55.9310   -18.3567 H6            1 RES     
    1081 H6          33.8993   -54.9049   -19.8380 H6            1 RES     
    1082 H6          32.7602   -54.8471   -18.4690 H6            1 RES     
    1083 H6          32.4077   -56.7124   -20.1001 H6            1 RES     
    1084 H6          34.0717   -57.3196   -19.8403 H6            1 RES     
    1085 H6          32.3583   -58.7447   -18.8033 H6            1 RES     
    1086 H6          33.4522   -58.1128   -17.5689 H6            1 RES     
    1087 H6          30.6353   -57.0189   -18.2550 H6            1 RES     
    1088 H6          31.0708   -58.0313   -16.8259 H6            1 RES     
    1089 H6          31.7103   -56.3559   -16.9583 H6            1 RES     
    1090 C0          50.7161   -43.8375   -24.6128 C0            1 RES     
    1091 C1          49.9873   -43.2241   -23.3992 C1            1 RES     
    1092 C1          50.7817   -42.2307   -22.6475 C1            1 RES     
    1093 S2          50.2914   -42.4187   -20.9265 S2            1 RES     
    1094 C1          48.6776   -42.8188   -21.6334 C1            1 RES     
    1095 C1          48.7765   -43.4033   -22.8822 C1            1 RES     
    1096 C1          52.1099   -42.5605   -23.1428 C1            1 RES     
    1097 C1          52.1235   -43.3935   -24.2239 C1            1 RES     
    1098 C1          53.4207   -43.6185   -24.7190 C1            1 RES     
    1099 C1          54.3885   -42.8825   -23.9942 C1            1 RES     
    1100 S2          53.6199   -41.9869   -22.7728 S2            1 RES     
    1101 H3          47.9931   -44.0231   -23.2864 H3            1 RES     
    1102 H3          53.6454   -44.2607   -25.5615 H3            1 RES     
    1103 N4          56.4426   -43.9184   -24.8741 N4            1 RES     
    1104 C1          57.7937   -44.0110   -25.0548 C1            1 RES     
    1105 C1          58.6521   -43.0139   -24.5759 C1            1 RES     
    1106 C1          58.0959   -41.9260   -23.9149 C1            1 RES     
    1107 N4          58.8253   -40.8926   -23.4274 N4            1 RES     
    1108 S2          57.6617   -39.9185   -22.7757 S2            1 RES     
    1109 N4          56.2575   -40.7394   -23.0652 N4            1 RES     
    1110 C1          56.6903   -41.8508   -23.7172 C1            1 RES     
    1111 C1          55.8565   -42.8778   -24.2097 C1            1 RES     
    1112 H5          58.2085   -44.8686   -25.5687 H5            1 RES     
    1113 C0          50.3002   -43.0994   -25.9267 C0            1 RES     
    1114 C0          48.8272   -43.2921   -26.3011 C0            1 RES     
    1115 C0          48.3195   -42.4757   -27.4937 C0            1 RES     
    1116 C0          48.3724   -40.9483   -27.3305 C0            1 RES     
    1117 C0          47.8225   -40.4568   -25.9758 C0            1 RES     
    1118 C0          47.6169   -38.9373   -25.9532 C0            1 RES     
    1119 C0          46.3074   -38.5538   -26.6601 C0            1 RES     
    1120 C0          46.1142   -37.0375   -26.7063 C0            1 RES     
    1121 C0          44.7095   -36.6940   -27.2116 C0            1 RES     
    1122 C0          44.4605   -35.2216   -27.5950 C0            1 RES     
    1123 C0          44.6894   -34.1389   -26.5214 C0            1 RES     
    1124 C0          46.1719   -33.7394   -26.3476 C0            1 RES     
    1125 C0          46.4326   -32.6099   -25.3312 C0            1 RES     
    1126 C0          46.2040   -31.1551   -25.8073 C0            1 RES     
    1127 C0          44.7713   -30.7079   -26.1332 C0            1 RES     
    1128 C0          43.8072   -30.9083   -24.9655 C0            1 RES     
    1129 H6          50.4773   -42.0139   -25.7721 H6            1 RES     
    1130 H6          50.9435   -43.4245   -26.7732 H6            1 RES     
    1131 H6          48.6832   -44.3363   -26.5737 H6            1 RES     
    1132 H6          48.1771   -43.0586   -25.4378 H6            1 RES     
    1133 H6          48.8599   -42.7623   -28.4218 H6            1 RES     
    1134 H6          47.2513   -42.7597   -27.6260 H6            1 RES     
    1135 H6          49.4184   -40.5854   -27.4305 H6            1 RES     
    1136 H6          47.7919   -40.5296   -28.1782 H6            1 RES     
    1137 H6          46.8640   -40.9548   -25.7113 H6            1 RES     
    1138 H6          48.5704   -40.7225   -25.1983 H6            1 RES     
    1139 H6          48.5016   -38.4272   -26.3946 H6            1 RES     
    1140 H6          47.5212   -38.6086   -24.8950 H6            1 RES     
    1141 H6          46.2819   -38.9383   -27.7008 H6            1 RES     
    1142 H6          45.4691   -39.0179   -26.0931 H6            1 RES     
    1143 H6          46.2229   -36.6383   -25.6776 H6            1 RES     
    1144 H6          46.8893   -36.6093   -27.3789 H6            1 RES     
    1145 H6          44.5022   -37.2846   -28.1314 H6            1 RES     
    1146 H6          43.9761   -37.0090   -26.4358 H6            1 RES     
    1147 H6          45.0389   -34.9554   -28.5058 H6            1 RES     
    1148 H6          43.3830   -35.1843   -27.8721 H6            1 RES     
    1149 H6          44.2260   -34.4427   -25.5579 H6            1 RES     
    1150 H6          44.1439   -33.2613   -26.8887 H6            1 RES     
    1151 H6          46.7206   -34.6085   -25.9590 H6            1 RES     
    1152 H6          46.6307   -33.4681   -27.3231 H6            1 RES     
    1153 H6          47.5223   -32.6524   -25.1075 H6            1 RES     
    1154 H6          45.9059   -32.8210   -24.3768 H6            1 RES     
    1155 H6          46.5744   -30.4932   -24.9936 H6            1 RES     
    1156 H6          46.8389   -30.9661   -26.7006 H6            1 RES     
    1157 H6          44.8019   -29.6242   -26.3783 H6            1 RES     
    1158 H6          44.3952   -31.2088   -27.0419 H6            1 RES     
    1159 H6          44.1659   -30.3544   -24.0723 H6            1 RES     
    1160 H6          42.8039   -30.5239   -25.2451 H6            1 RES     
    1161 H6          43.7078   -31.9835   -24.7129 H6            1 RES     
    1162 C0          50.6685   -45.4179   -24.7176 C0            1 RES     
    1163 C0          49.3025   -46.0680   -24.3871 C0            1 RES     
    1164 C0          49.1486   -47.5826   -24.6453 C0            1 RES     
    1165 C0          48.9369   -48.0442   -26.1086 C0            1 RES     
    1166 C0          47.8203   -47.2564   -26.8249 C0            1 RES     
    1167 C0          47.2816   -47.9004   -28.1105 C0            1 RES     
    1168 C0          46.2683   -49.0149   -27.8020 C0            1 RES     
    1169 C0          45.6569   -49.5962   -29.0854 C0            1 RES     
    1170 C0          44.5187   -50.5674   -28.7453 C0            1 RES     
    1171 C0          43.9802   -51.4408   -29.8991 C0            1 RES     
    1172 C0          43.3166   -50.7518   -31.1105 C0            1 RES     
    1173 C0          44.3133   -50.1668   -32.1319 C0            1 RES     
    1174 C0          43.6720   -49.5608   -33.3985 C0            1 RES     
    1175 C0          43.2549   -50.5367   -34.5270 C0            1 RES     
    1176 C0          42.0948   -51.5099   -34.2671 C0            1 RES     
    1177 C0          40.8039   -50.8007   -33.8627 C0            1 RES     
    1178 H6          51.0147   -45.7087   -25.7331 H6            1 RES     
    1179 H6          51.3821   -45.8672   -23.9911 H6            1 RES     
    1180 H6          49.1720   -45.9438   -23.2922 H6            1 RES     
    1181 H6          48.4570   -45.5635   -24.8734 H6            1 RES     
    1182 H6          49.9854   -48.1456   -24.1793 H6            1 RES     
    1183 H6          48.2180   -47.8799   -24.1117 H6            1 RES     
    1184 H6          49.8731   -47.9629   -26.7022 H6            1 RES     
    1185 H6          48.6626   -49.1189   -26.0521 H6            1 RES     
    1186 H6          46.9591   -47.0603   -26.1486 H6            1 RES     
    1187 H6          48.2650   -46.2946   -27.1127 H6            1 RES     
    1188 H6          48.1168   -48.2508   -28.7559 H6            1 RES     
    1189 H6          46.7237   -47.1148   -28.6649 H6            1 RES     
    1190 H6          46.7463   -49.8289   -27.2178 H6            1 RES     
    1191 H6          45.4490   -48.5730   -27.1903 H6            1 RES     
    1192 H6          45.2400   -48.7578   -29.6762 H6            1 RES     
    1193 H6          46.4558   -50.1153   -29.6569 H6            1 RES     
    1194 H6          44.8938   -51.2828   -27.9804 H6            1 RES     
    1195 H6          43.6817   -49.9933   -28.2885 H6            1 RES     
    1196 H6          44.7707   -52.1338   -30.2596 H6            1 RES     
    1197 H6          43.1905   -52.0669   -29.4262 H6            1 RES     
    1198 H6          42.5831   -49.9886   -30.7711 H6            1 RES     
    1199 H6          42.7524   -51.5497   -31.6094 H6            1 RES     
    1200 H6          44.8452   -49.3360   -31.6473 H6            1 RES     
    1201 H6          45.0712   -50.9223   -32.4321 H6            1 RES     
    1202 H6          44.4653   -48.9347   -33.8651 H6            1 RES     
    1203 H6          42.8465   -48.8707   -33.1233 H6            1 RES     
    1204 H6          42.9612   -49.9093   -35.3976 H6            1 RES     
    1205 H6          44.1440   -51.1296   -34.8343 H6            1 RES     
    1206 H6          41.9034   -52.0680   -35.2096 H6            1 RES     
    1207 H6          42.3731   -52.2727   -33.5194 H6            1 RES     
    1208 H6          40.5015   -50.0762   -34.6484 H6            1 RES     
    1209 H6          39.9941   -51.5500   -33.7388 H6            1 RES     
    1210 H6          40.9313   -50.2648   -32.9001 H6            1 RES     
    1211 C0          63.3055   -43.8934   -26.9568 C0            1 RES     
    1212 C1          62.2204   -43.4428   -25.9567 C1            1 RES     
    1213 C1          62.7348   -43.0768   -24.6209 C1            1 RES     
    1214 S2          61.4554   -43.5705   -23.4559 S2            1 RES     
    1215 C1          60.3334   -43.1267   -24.8006 C1            1 RES     
    1216 C1          60.9014   -43.3113   -26.0472 C1            1 RES     
    1217 C1          64.0449   -43.7071   -24.6868 C1            1 RES     
    1218 C1          64.4113   -44.1296   -25.9318 C1            1 RES     
    1219 C1          65.7152   -44.6561   -25.9641 C1            1 RES     
    1220 C1          66.3409   -44.5727   -24.6971 C1            1 RES     
    1221 S2          65.2730   -43.8608   -23.5847 S2            1 RES     
    1222 H3          60.3030   -43.4538   -26.9321 H3            1 RES     
    1223 H3          66.1855   -45.0572   -26.8533 H3            1 RES     
    1224 N4          68.3192   -45.9785   -25.1175 N4            1 RES     
    1225 C1          69.5447   -46.5003   -24.8136 C1            1 RES     
    1226 C1          70.2450   -46.0740   -23.6786 C1            1 RES     
    1227 C1          69.6644   -45.1047   -22.8703 C1            1 RES     
    1228 N4          70.2572   -44.6019   -21.7598 N4            1 RES     
    1229 S2          69.1386   -43.5085   -21.2296 S2            1 RES     
    1230 N4          67.9147   -43.6358   -22.3318 N4            1 RES     
    1231 C1          68.3807   -44.5834   -23.1876 C1            1 RES     
    1232 C1          67.7022   -45.0411   -24.3377 C1            1 RES     
    1233 H5          69.9787   -47.2579   -25.4533 H5            1 RES     
    1234 C0          63.7210   -42.7028   -27.8808 C0            1 RES     
    1235 C0          62.6010   -42.2251   -28.8104 C0            1 RES     
    1236 C0          62.8952   -40.9676   -29.6342 C0            1 RES     
    1237 C0          63.1599   -39.6860   -28.8281 C0            1 RES     
    1238 C0          62.1368   -39.4499   -27.6981 C0            1 RES     
    1239 C0          62.2457   -38.0395   -27.1061 C0            1 RES     
    1240 C0          61.5369   -37.0146   -28.0053 C0            1 RES     
    1241 C0          61.6886   -35.5913   -27.4671 C0            1 RES     
    1242 C0          60.7940   -34.6264   -28.2513 C0            1 RES     
    1243 C0          61.0505   -33.1221   -28.0312 C0            1 RES     
    1244 C0          60.9441   -32.5655   -26.5973 C0            1 RES     
    1245 C0          62.2085   -32.8050   -25.7420 C0            1 RES     
    1246 C0          62.1657   -32.2019   -24.3239 C0            1 RES     
    1247 C0          62.4807   -30.6934   -24.1805 C0            1 RES     
    1248 C0          61.4965   -29.6794   -24.7822 C0            1 RES     
    1249 C0          60.0736   -29.8482   -24.2533 C0            1 RES     
    1250 H6          64.0101   -41.8543   -27.2251 H6            1 RES     
    1251 H6          64.6135   -42.9757   -28.4853 H6            1 RES     
    1252 H6          62.4048   -43.0145   -29.5341 H6            1 RES     
    1253 H6          61.6769   -42.0357   -28.2336 H6            1 RES     
    1254 H6          63.7460   -41.1447   -30.3272 H6            1 RES     
    1255 H6          61.9883   -40.7895   -30.2548 H6            1 RES     
    1256 H6          64.1742   -39.7178   -28.3743 H6            1 RES     
    1257 H6          63.1495   -38.8547   -29.5628 H6            1 RES     
    1258 H6          61.0926   -39.6177   -28.0415 H6            1 RES     
    1259 H6          62.3540   -40.1866   -26.8951 H6            1 RES     
    1260 H6          63.3138   -37.7820   -26.9308 H6            1 RES     
    1261 H6          61.7218   -38.0257   -26.1251 H6            1 RES     
    1262 H6          61.9376   -37.0385   -29.0399 H6            1 RES     
    1263 H6          60.4574   -37.2854   -28.0401 H6            1 RES     
    1264 H6          61.3675   -35.5812   -26.4058 H6            1 RES     
    1265 H6          62.7573   -35.2980   -27.5581 H6            1 RES     
    1266 H6          60.9412   -34.8014   -29.3401 H6            1 RES     
    1267 H6          59.7335   -34.8652   -28.0114 H6            1 RES     
    1268 H6          62.0333   -32.8300   -28.4602 H6            1 RES     
    1269 H6          60.2675   -32.6142   -28.6378 H6            1 RES     
    1270 H6          60.0274   -32.9482   -26.0987 H6            1 RES     
    1271 H6          60.8233   -31.4831   -26.7258 H6            1 RES     
    1272 H6          62.3235   -33.8874   -25.5910 H6            1 RES     
    1273 H6          63.1206   -32.4457   -26.2660 H6            1 RES     
    1274 H6          62.9838   -32.7031   -23.7592 H6            1 RES     
    1275 H6          61.2172   -32.4770   -23.8163 H6            1 RES     
    1276 H6          62.5378   -30.4836   -23.0896 H6            1 RES     
    1277 H6          63.4883   -30.4953   -24.6073 H6            1 RES     
    1278 H6          61.8509   -28.6613   -24.5114 H6            1 RES     
    1279 H6          61.5113   -29.7170   -25.8851 H6            1 RES     
    1280 H6          60.0615   -29.7529   -23.1469 H6            1 RES     
    1281 H6          59.4227   -29.0602   -24.6868 H6            1 RES     
    1282 H6          59.6583   -30.8359   -24.5393 H6            1 RES     
    1283 C0          63.0071   -45.2410   -27.7352 C0            1 RES     
    1284 C0          61.5527   -45.4138   -28.2376 C0            1 RES     
    1285 C0          61.2495   -46.6193   -29.1537 C0            1 RES     
    1286 C0          61.6779   -46.5189   -30.6387 C0            1 RES     
    1287 C0          61.2173   -45.2045   -31.3028 C0            1 RES     
    1288 C0          61.2453   -45.1982   -32.8380 C0            1 RES     
    1289 C0          60.0129   -45.9034   -33.4281 C0            1 RES     
    1290 C0          59.9897   -45.8158   -34.9612 C0            1 RES     
    1291 C0          58.6633   -46.3582   -35.5096 C0            1 RES     
    1292 C0          58.5837   -46.5933   -37.0336 C0            1 RES     
    1293 C0          58.7286   -45.3859   -37.9842 C0            1 RES     
    1294 C0          60.1845   -44.9323   -38.2161 C0            1 RES     
    1295 C0          60.3587   -43.7901   -39.2396 C0            1 RES     
    1296 C0          60.3510   -44.1676   -40.7421 C0            1 RES     
    1297 C0          59.0437   -44.6801   -41.3656 C0            1 RES     
    1298 C0          57.8829   -43.7015   -41.1995 C0            1 RES     
    1299 H6          63.7325   -45.3252   -28.5731 H6            1 RES     
    1300 H6          63.1835   -46.1123   -27.0652 H6            1 RES     
    1301 H6          60.9416   -45.5788   -27.3262 H6            1 RES     
    1302 H6          61.1592   -44.5164   -28.7333 H6            1 RES     
    1303 H6          61.6338   -47.5592   -28.7028 H6            1 RES     
    1304 H6          60.1395   -46.6992   -29.1785 H6            1 RES     
    1305 H6          62.7794   -46.6141   -30.7536 H6            1 RES     
    1306 H6          61.2068   -47.3846   -31.1507 H6            1 RES     
    1307 H6          60.1946   -44.9161   -30.9738 H6            1 RES     
    1308 H6          61.9231   -44.4327   -30.9683 H6            1 RES     
    1309 H6          62.2009   -45.6225   -33.2168 H6            1 RES     
    1310 H6          61.1854   -44.1375   -33.1652 H6            1 RES     
    1311 H6          59.9846   -46.9689   -33.1175 H6            1 RES     
    1312 H6          59.1049   -45.3941   -33.0323 H6            1 RES     
    1313 H6          60.0783   -44.7492   -35.2445 H6            1 RES     
    1314 H6          60.8462   -46.3977   -35.3641 H6            1 RES     
    1315 H6          58.4796   -47.3522   -35.0450 H6            1 RES     
    1316 H6          57.8398   -45.6800   -35.1921 H6            1 RES     
    1317 H6          59.2982   -47.3878   -37.3391 H6            1 RES     
    1318 H6          57.5594   -46.9972   -37.1976 H6            1 RES     
    1319 H6          58.0867   -44.5440   -37.6454 H6            1 RES     
    1320 H6          58.3286   -45.7377   -38.9434 H6            1 RES     
    1321 H6          60.5701   -44.5355   -37.2664 H6            1 RES     
    1322 H6          60.8301   -45.7879   -38.5102 H6            1 RES     
    1323 H6          61.3831   -43.3894   -39.0691 H6            1 RES     
    1324 H6          59.6544   -42.9603   -39.0187 H6            1 RES     
    1325 H6          60.6378   -43.2499   -41.3020 H6            1 RES     
    1326 H6          61.1441   -44.9253   -40.9249 H6            1 RES     
    1327 H6          59.2218   -44.8256   -42.4535 H6            1 RES     
    1328 H6          58.7762   -45.6755   -40.9708 H6            1 RES     
    1329 H6          58.1405   -42.7199   -41.6509 H6            1 RES     
    1330 H6          56.9842   -44.1041   -41.7122 H6            1 RES     
    1331 H6          57.6360   -43.5581   -40.1278 H6            1 RES     
    1332 C0          75.1976   -47.8487   -24.3258 C0            1 RES     
    1333 C1          73.8779   -47.3490   -23.7019 C1            1 RES     
    1334 C1          73.7510   -47.6069   -22.2527 C1            1 RES     
    1335 S2          72.0022   -47.9188   -21.9662 S2            1 RES     
    1336 C1          71.7705   -46.7213   -23.2990 C1            1 RES     
    1337 C1          72.8170   -46.7247   -24.2021 C1            1 RES     
    1338 C1          74.7819   -48.6224   -22.0980 C1            1 RES     
    1339 C1          75.6087   -48.7628   -23.1747 C1            1 RES     
    1340 C1          76.6384   -49.6943   -22.9503 C1            1 RES     
    1341 C1          76.5847   -50.2221   -21.6380 C1            1 RES     
    1342 S2          75.2769   -49.5309   -20.8034 S2            1 RES     
    1343 H3          72.6998   -46.3716   -25.2135 H3            1 RES     
    1344 H3          77.3882   -49.9585   -23.6856 H3            1 RES     
    1345 N4          78.2065   -52.0621   -21.8637 N4            1 RES     
    1346 C1          79.0092   -53.0598   -21.3876 C1            1 RES     
    1347 C1          79.1494   -53.2732   -20.0109 C1            1 RES     
    1348 C1          78.4544   -52.4430   -19.1404 C1            1 RES     
    1349 N4          78.5290   -52.5423   -17.7905 N4            1 RES     
    1350 S2          77.5303   -51.3244   -17.2935 S2            1 RES     
    1351 N4          76.9842   -50.6654   -18.7065 N4            1 RES     
    1352 C1          77.6080   -51.4205   -19.6490 C1            1 RES     
    1353 C1          77.4877   -51.2385   -21.0436 C1            1 RES     
    1354 H5          79.5393   -53.6990   -22.0818 H5            1 RES     
    1355 C0          76.2270   -46.6769   -24.4307 C0            1 RES     
    1356 C0          75.8052   -45.5723   -25.4048 C0            1 RES     
    1357 C0          76.6958   -44.3266   -25.4427 C0            1 RES     
    1358 C0          76.7865   -43.5286   -24.1322 C0            1 RES     
    1359 C0          75.4161   -43.2793   -23.4697 C0            1 RES     
    1360 C0          75.5008   -42.2476   -22.3383 C0            1 RES     
    1361 C0          75.5231   -40.8189   -22.9038 C0            1 RES     
    1362 C0          75.6728   -39.7757   -21.7957 C0            1 RES     
    1363 C0          75.4693   -38.3660   -22.3594 C0            1 RES     
    1364 C0          75.8766   -37.1959   -21.4418 C0            1 RES     
    1365 C0          75.2083   -37.0876   -20.0566 C0            1 RES     
    1366 C0          75.8356   -38.0125   -18.9897 C0            1 RES     
    1367 C0          75.2384   -37.8817   -17.5744 C0            1 RES     
    1368 C0          75.7333   -36.7066   -16.6971 C0            1 RES     
    1369 C0          75.3754   -35.2746   -17.1216 C0            1 RES     
    1370 C0          73.8710   -35.0599   -17.2752 C0            1 RES     
    1371 H6          76.3263   -46.2260   -23.4206 H6            1 RES     
    1372 H6          77.2273   -47.0656   -24.7216 H6            1 RES     
    1373 H6          75.8295   -45.9848   -26.4122 H6            1 RES     
    1374 H6          74.7748   -45.2375   -25.1841 H6            1 RES     
    1375 H6          77.7213   -44.5896   -25.7812 H6            1 RES     
    1376 H6          76.2504   -43.6555   -26.2111 H6            1 RES     
    1377 H6          77.4321   -44.0606   -23.4001 H6            1 RES     
    1378 H6          77.2907   -42.5743   -24.3892 H6            1 RES     
    1379 H6          74.6532   -42.9452   -24.2066 H6            1 RES     
    1380 H6          75.0747   -44.2456   -23.0403 H6            1 RES     
    1381 H6          76.3819   -42.4617   -21.6936 H6            1 RES     
    1382 H6          74.5858   -42.3330   -21.7118 H6            1 RES     
    1383 H6          76.3563   -40.6818   -23.6238 H6            1 RES     
    1384 H6          74.5625   -40.6537   -23.4420 H6            1 RES     
    1385 H6          74.8924   -39.9621   -21.0304 H6            1 RES     
    1386 H6          76.6888   -39.8800   -21.3559 H6            1 RES     
    1387 H6          76.0819   -38.2538   -23.2814 H6            1 RES     
    1388 H6          74.3999   -38.2605   -22.6498 H6            1 RES     
    1389 H6          76.9803   -37.1704   -21.3136 H6            1 RES     
    1390 H6          75.5949   -36.2829   -22.0128 H6            1 RES     
    1391 H6          74.1103   -37.2378   -20.1419 H6            1 RES     
    1392 H6          75.3770   -36.0497   -19.7452 H6            1 RES     
    1393 H6          75.6513   -39.0549   -19.2845 H6            1 RES     
    1394 H6          76.9373   -37.8739   -18.9370 H6            1 RES     
    1395 H6          75.5716   -38.7893   -17.0224 H6            1 RES     
    1396 H6          74.1298   -37.9278   -17.6180 H6            1 RES     
    1397 H6          75.3015   -36.8633   -15.6840 H6            1 RES     
    1398 H6          76.8389   -36.7738   -16.5980 H6            1 RES     
    1399 H6          75.7476   -34.5845   -16.3338 H6            1 RES     
    1400 H6          75.9080   -34.9885   -18.0449 H6            1 RES     
    1401 H6          73.3502   -35.2971   -16.3234 H6            1 RES     
    1402 H6          73.6742   -33.9987   -17.5352 H6            1 RES     
    1403 H6          73.4598   -35.6965   -18.0849 H6            1 RES     
    1404 C0          75.0519   -48.7008   -25.6538 C0            1 RES     
    1405 C0          74.0128   -48.1745   -26.6740 C0            1 RES     
    1406 C0          73.9564   -48.8588   -28.0571 C0            1 RES     
    1407 C0          75.0528   -48.4894   -29.0868 C0            1 RES     
    1408 C0          75.2317   -46.9649   -29.2436 C0            1 RES     
    1409 C0          75.9909   -46.5175   -30.5011 C0            1 RES     
    1410 C0          75.0803   -46.5168   -31.7400 C0            1 RES     
    1411 C0          75.8104   -45.9795   -32.9798 C0            1 RES     
    1412 C0          74.8310   -45.8129   -34.1491 C0            1 RES     
    1413 C0          75.4457   -45.5428   -35.5394 C0            1 RES     
    1414 C0          76.2593   -44.2495   -35.7581 C0            1 RES     
    1415 C0          77.7053   -44.3121   -35.2251 C0            1 RES     
    1416 C0          78.5662   -43.0655   -35.5211 C0            1 RES     
    1417 C0          79.2045   -42.9538   -36.9283 C0            1 RES     
    1418 C0          78.2832   -42.7457   -38.1400 C0            1 RES     
    1419 C0          77.4000   -41.5065   -38.0087 C0            1 RES     
    1420 H6          76.0574   -48.7933   -26.1184 H6            1 RES     
    1421 H6          74.7131   -49.7320   -25.4067 H6            1 RES     
    1422 H6          73.0216   -48.3655   -26.2132 H6            1 RES     
    1423 H6          74.0874   -47.0923   -26.8449 H6            1 RES     
    1424 H6          73.8871   -49.9621   -27.9448 H6            1 RES     
    1425 H6          73.0020   -48.5169   -28.5168 H6            1 RES     
    1426 H6          76.0326   -48.9418   -28.8205 H6            1 RES     
    1427 H6          74.7256   -48.9313   -30.0517 H6            1 RES     
    1428 H6          74.2547   -46.4336   -29.2215 H6            1 RES     
    1429 H6          75.8265   -46.6393   -28.3799 H6            1 RES     
    1430 H6          76.9078   -47.1297   -30.6468 H6            1 RES     
    1431 H6          76.3025   -45.4625   -30.3411 H6            1 RES     
    1432 H6          74.7001   -47.5389   -31.9479 H6            1 RES     
    1433 H6          74.2125   -45.8520   -31.5266 H6            1 RES     
    1434 H6          76.2294   -44.9865   -32.7268 H6            1 RES     
    1435 H6          76.6233   -46.6875   -33.2489 H6            1 RES     
    1436 H6          74.2581   -46.7605   -34.2557 H6            1 RES     
    1437 H6          74.1059   -45.0068   -33.8975 H6            1 RES     
    1438 H6          76.0490   -46.4155   -35.8705 H6            1 RES     
    1439 H6          74.5681   -45.4773   -36.2214 H6            1 RES     
    1440 H6          75.7114   -43.3713   -35.3527 H6            1 RES     
    1441 H6          76.3067   -44.1318   -36.8479 H6            1 RES     
    1442 H6          77.6588   -44.3820   -34.1292 H6            1 RES     
    1443 H6          78.2323   -45.2169   -35.5980 H6            1 RES     
    1444 H6          79.4400   -43.1358   -34.8351 H6            1 RES     
    1445 H6          78.0189   -42.1406   -35.2413 H6            1 RES     
    1446 H6          79.8964   -42.0832   -36.8954 H6            1 RES     
    1447 H6          79.8236   -43.8587   -37.1134 H6            1 RES     
    1448 H6          78.9275   -42.6189   -39.0374 H6            1 RES     
    1449 H6          77.6715   -43.6434   -38.3357 H6            1 RES     
    1450 H6          78.0275   -40.6007   -37.8693 H6            1 RES     
    1451 H6          76.7971   -41.3831   -38.9327 H6            1 RES     
    1452 H6          76.7041   -41.6052   -37.1507 H6            1 RES     
    1453 C0          83.3550   -56.4580   -19.4963 C0            1 RES     
    1454 C1          82.0238   -55.7186   -19.2484 C1            1 RES     
    1455 C1          81.1721   -56.3267   -18.2055 C1            1 RES     
    1456 S2          79.4765   -56.0481   -18.7398 S2            1 RES     
    1457 C1          80.1484   -54.5135   -19.4163 C1            1 RES     
    1458 C1          81.4758   -54.6327   -19.7831 C1            1 RES     
    1459 C1          81.7833   -57.6455   -18.1346 C1            1 RES     
    1460 C1          82.9789   -57.7543   -18.7837 C1            1 RES     
    1461 C1          83.5723   -59.0190   -18.6197 C1            1 RES     
    1462 C1          82.7961   -59.8519   -17.7785 C1            1 RES     
    1463 S2          81.4116   -59.0097   -17.2703 S2            1 RES     
    1464 H3          81.9277   -53.9802   -20.5121 H3            1 RES     
    1465 H3          84.5145   -59.3096   -19.0673 H3            1 RES     
    1466 N4          83.9349   -62.0026   -18.1586 N4            1 RES     
    1467 C1          84.2005   -63.3171   -17.8974 C1            1 RES     
    1468 C1          83.6208   -63.9619   -16.7980 C1            1 RES     
    1469 C1          82.7710   -63.2313   -15.9771 C1            1 RES     
    1470 N4          82.1703   -63.7436   -14.8752 N4            1 RES     
    1471 S2          81.3143   -62.4497   -14.3088 S2            1 RES     
    1472 N4          81.6504   -61.2524   -15.3962 N4            1 RES     
    1473 C1          82.4883   -61.8695   -16.2706 C1            1 RES     
    1474 C1          83.0874   -61.2542   -17.3909 C1            1 RES     
    1475 H5          84.8620   -63.8707   -18.5511 H5            1 RES     
    1476 C0          84.5150   -55.7680   -18.7074 C0            1 RES     
    1477 C0          84.8344   -54.3517   -19.1962 C0            1 RES     
    1478 C0          85.8578   -53.5654   -18.3709 C0            1 RES     
    1479 C0          85.4643   -53.2796   -16.9129 C0            1 RES     
    1480 C0          84.0223   -52.7541   -16.7584 C0            1 RES     
    1481 C0          83.7548   -52.2070   -15.3511 C0            1 RES     
    1482 C0          84.3224   -50.7868   -15.2013 C0            1 RES     
    1483 C0          84.1239   -50.2463   -13.7846 C0            1 RES     
    1484 C0          84.4935   -48.7610   -13.7238 C0            1 RES     
    1485 C0          84.6314   -48.1464   -12.3166 C0            1 RES     
    1486 C0          83.4179   -48.2145   -11.3680 C0            1 RES     
    1487 C0          83.2650   -49.5746   -10.6508 C0            1 RES     
    1488 C0          82.1023   -49.6577    -9.6419 C0            1 RES     
    1489 C0          82.3355   -49.0588    -8.2339 C0            1 RES     
    1490 C0          82.5107   -47.5384    -8.1047 C0            1 RES     
    1491 C0          81.3374   -46.7543    -8.6893 C0            1 RES     
    1492 H6          84.2048   -55.7034   -17.6429 H6            1 RES     
    1493 H6          85.4351   -56.3909   -18.7490 H6            1 RES     
    1494 H6          85.2565   -54.4283   -20.1969 H6            1 RES     
    1495 H6          83.9116   -53.7448   -19.2466 H6            1 RES     
    1496 H6          86.8468   -54.0724   -18.3890 H6            1 RES     
    1497 H6          85.9744   -52.5839   -18.8830 H6            1 RES     
    1498 H6          85.5636   -54.2007   -16.2985 H6            1 RES     
    1499 H6          86.2048   -52.5451   -16.5344 H6            1 RES     
    1500 H6          83.7863   -51.9636   -17.5041 H6            1 RES     
    1501 H6          83.3366   -53.6093   -16.9400 H6            1 RES     
    1502 H6          84.1596   -52.9075   -14.5873 H6            1 RES     
    1503 H6          82.6550   -52.1328   -15.2030 H6            1 RES     
    1504 H6          85.4069   -50.7578   -15.4345 H6            1 RES     
    1505 H6          83.7892   -50.1318   -15.9268 H6            1 RES     
    1506 H6          83.0533   -50.3513   -13.5156 H6            1 RES     
    1507 H6          84.7634   -50.8388   -13.0944 H6            1 RES     
    1508 H6          85.4808   -48.6141   -14.2153 H6            1 RES     
    1509 H6          83.7369   -48.1919   -14.3093 H6            1 RES     
    1510 H6          85.5203   -48.5645   -11.7968 H6            1 RES     
    1511 H6          84.8408   -47.0690   -12.5023 H6            1 RES     
    1512 H6          82.4890   -47.9212   -11.9034 H6            1 RES     
    1513 H6          83.6155   -47.4511   -10.6059 H6            1 RES     
    1514 H6          83.0451   -50.3411   -11.4069 H6            1 RES     
    1515 H6          84.2104   -49.8698   -10.1461 H6            1 RES     
    1516 H6          81.9471   -50.7434    -9.4507 H6            1 RES     
    1517 H6          81.1647   -49.2809   -10.1021 H6            1 RES     
    1518 H6          81.4508   -49.3378    -7.6200 H6            1 RES     
    1519 H6          83.2220   -49.5509    -7.7771 H6            1 RES     
    1520 H6          82.5871   -47.2967    -7.0225 H6            1 RES     
    1521 H6          83.4639   -47.2083    -8.5523 H6            1 RES     
    1522 H6          80.3902   -47.0539    -8.1930 H6            1 RES     
    1523 H6          81.4997   -45.6687    -8.5235 H6            1 RES     
    1524 H6          81.2484   -46.9281    -9.7810 H6            1 RES     
    1525 C0          83.6993   -56.7665   -21.0119 C0            1 RES     
    1526 C0          83.3996   -55.6219   -22.0109 C0            1 RES     
    1527 C0          83.8793   -55.7986   -23.4679 C0            1 RES     
    1528 C0          85.3826   -55.5694   -23.7622 C0            1 RES     
    1529 C0          85.9075   -54.2421   -23.1761 C0            1 RES     
    1530 C0          87.2460   -53.7539   -23.7488 C0            1 RES     
    1531 C0          87.0585   -53.0561   -25.1060 C0            1 RES     
    1532 C0          88.3812   -52.4831   -25.6362 C0            1 RES     
    1533 C0          88.1337   -51.6342   -26.8902 C0            1 RES     
    1534 C0          89.3775   -51.2107   -27.7012 C0            1 RES     
    1535 C0          90.4307   -50.3011   -27.0333 C0            1 RES     
    1536 C0          91.4021   -51.0412   -26.0913 C0            1 RES     
    1537 C0          92.5236   -50.1674   -25.4901 C0            1 RES     
    1538 C0          93.7648   -49.8874   -26.3739 C0            1 RES     
    1539 C0          93.5956   -49.0105   -27.6241 C0            1 RES     
    1540 C0          93.0176   -47.6323   -27.3089 C0            1 RES     
    1541 H6          84.7646   -57.0785   -21.0689 H6            1 RES     
    1542 H6          83.0903   -57.6262   -21.3711 H6            1 RES     
    1543 H6          82.2931   -55.5644   -22.0728 H6            1 RES     
    1544 H6          83.7558   -54.6431   -21.6632 H6            1 RES     
    1545 H6          83.5515   -56.7807   -23.8710 H6            1 RES     
    1546 H6          83.3483   -55.0128   -24.0507 H6            1 RES     
    1547 H6          86.0063   -56.4051   -23.3773 H6            1 RES     
    1548 H6          85.4776   -55.5561   -24.8686 H6            1 RES     
    1549 H6          85.1635   -53.4227   -23.2878 H6            1 RES     
    1550 H6          86.0674   -54.4259   -22.1055 H6            1 RES     
    1551 H6          87.9818   -54.5864   -23.7959 H6            1 RES     
    1552 H6          87.6417   -52.9830   -23.0525 H6            1 RES     
    1553 H6          86.6334   -53.7588   -25.8529 H6            1 RES     
    1554 H6          86.3427   -52.2149   -24.9625 H6            1 RES     
    1555 H6          88.8123   -51.8335   -24.8502 H6            1 RES     
    1556 H6          89.0682   -53.3260   -25.8644 H6            1 RES     
    1557 H6          87.5096   -52.2305   -27.5918 H6            1 RES     
    1558 H6          87.5494   -50.7315   -26.6026 H6            1 RES     
    1559 H6          89.8827   -52.1042   -28.1273 H6            1 RES     
    1560 H6          88.9647   -50.6317   -28.5577 H6            1 RES     
    1561 H6          89.9385   -49.4448   -26.5231 H6            1 RES     
    1562 H6          91.0152   -49.8936   -27.8676 H6            1 RES     
    1563 H6          90.8247   -51.4085   -25.2312 H6            1 RES     
    1564 H6          91.8556   -51.9229   -26.5935 H6            1 RES     
    1565 H6          92.9304   -50.7504   -24.6336 H6            1 RES     
    1566 H6          92.1011   -49.2330   -25.0637 H6            1 RES     
    1567 H6          94.5112   -49.3808   -25.7227 H6            1 RES     
    1568 H6          94.2074   -50.8582   -26.6873 H6            1 RES     
    1569 H6          94.6011   -48.8696   -28.0775 H6            1 RES     
    1570 H6          92.9904   -49.5224   -28.3922 H6            1 RES     
    1571 H6          93.6647   -47.1024   -26.5782 H6            1 RES     
    1572 H6          92.9670   -47.0311   -28.2410 H6            1 RES     
    1573 H6          91.9922   -47.7181   -26.8951 H6            1 RES     
    1574 C0          86.3569   -68.4617   -16.1963 C0            1 RES     
    1575 C1          85.2421   -67.3956   -16.1615 C1            1 RES     
    1576 C1          83.8957   -67.9288   -15.8688 C1            1 RES     
    1577 S2          82.7532   -66.9064   -16.8108 S2            1 RES     
    1578 C1          83.9507   -65.5972   -16.4706 C1            1 RES     
    1579 C1          85.2398   -66.0790   -16.3406 C1            1 RES     
    1580 C1          84.1286   -69.3376   -16.1498 C1            1 RES     
    1581 C1          85.4418   -69.6790   -16.2970 C1            1 RES     
    1582 C1          85.6253   -71.0609   -16.4844 C1            1 RES     
    1583 C1          84.3963   -71.7608   -16.4270 C1            1 RES     
    1584 S2          83.1315   -70.6612   -16.1524 S2            1 RES     
    1585 H3          86.1024   -65.4531   -16.5005 H3            1 RES     
    1586 H3          86.5898   -71.5298   -16.6349 H3            1 RES     
    1587 N4          85.1347   -73.9642   -17.2436 N4            1 RES     
    1588 C1          84.9814   -75.2990   -17.4913 C1            1 RES     
    1589 C1          83.8339   -75.9806   -17.0683 C1            1 RES     
    1590 C1          82.8558   -75.2667   -16.3874 C1            1 RES     
    1591 N4          81.7147   -75.8243   -15.9134 N4            1 RES     
    1592 S2          80.9627   -74.5358   -15.2049 S2            1 RES     
    1593 N4          82.0035   -73.2808   -15.4712 N4            1 RES     
    1594 C1          83.0190   -73.8744   -16.1523 C1            1 RES     
    1595 C1          84.1875   -73.2199   -16.5982 C1            1 RES     
    1596 H5          85.7528   -75.8370   -18.0271 H5            1 RES     
    1597 C0          87.1075   -68.5080   -14.8257 C0            1 RES     
    1598 C0          87.8904   -67.2298   -14.5093 C0            1 RES     
    1599 C0          88.5254   -67.1519   -13.1174 C0            1 RES     
    1600 C0          87.5470   -67.1851   -11.9325 C0            1 RES     
    1601 C0          86.3404   -66.2400   -12.1068 C0            1 RES     
    1602 C0          85.5449   -66.0735   -10.8064 C0            1 RES     
    1603 C0          86.2359   -65.0704    -9.8693 C0            1 RES     
    1604 C0          85.4938   -64.9377    -8.5389 C0            1 RES     
    1605 C0          86.0704   -63.7787    -7.7199 C0            1 RES     
    1606 C0          85.6354   -63.7005    -6.2429 C0            1 RES     
    1607 C0          84.1292   -63.5969    -5.9299 C0            1 RES     
    1608 C0          83.3907   -64.9535    -5.9725 C0            1 RES     
    1609 C0          81.8963   -64.8994    -5.5973 C0            1 RES     
    1610 C0          81.5395   -64.8701    -4.0916 C0            1 RES     
    1611 C0          81.9237   -63.6293    -3.2721 C0            1 RES     
    1612 C0          81.3509   -62.3364    -3.8494 C0            1 RES     
    1613 H6          86.3455   -68.6511   -14.0305 H6            1 RES     
    1614 H6          87.7942   -69.3817   -14.7901 H6            1 RES     
    1615 H6          88.7155   -67.1569   -15.2160 H6            1 RES     
    1616 H6          87.2423   -66.3420   -14.6289 H6            1 RES     
    1617 H6          89.2824   -67.9554   -12.9878 H6            1 RES     
    1618 H6          89.0611   -66.1768   -13.0798 H6            1 RES     
    1619 H6          87.1590   -68.2157   -11.7809 H6            1 RES     
    1620 H6          88.1432   -66.9181   -11.0357 H6            1 RES     
    1621 H6          86.6486   -65.2361   -12.4726 H6            1 RES     
    1622 H6          85.6735   -66.6916   -12.8722 H6            1 RES     
    1623 H6          85.3901   -67.0648   -10.3256 H6            1 RES     
    1624 H6          84.5467   -65.6500   -11.0536 H6            1 RES     
    1625 H6          87.2819   -65.3722    -9.6541 H6            1 RES     
    1626 H6          86.2536   -64.0837   -10.3848 H6            1 RES     
    1627 H6          84.4279   -64.7187    -8.7518 H6            1 RES     
    1628 H6          85.5962   -65.8977    -7.9871 H6            1 RES     
    1629 H6          87.1795   -63.8647    -7.7037 H6            1 RES     
    1630 H6          85.8132   -62.8274    -8.2377 H6            1 RES     
    1631 H6          86.0668   -64.5473    -5.6667 H6            1 RES     
    1632 H6          86.1132   -62.7708    -5.8604 H6            1 RES     
    1633 H6          83.6467   -62.8412    -6.5867 H6            1 RES     
    1634 H6          84.0827   -63.2192    -4.9014 H6            1 RES     
    1635 H6          83.4147   -65.3276    -7.0054 H6            1 RES     
    1636 H6          83.9016   -65.7080    -5.3358 H6            1 RES     
    1637 H6          81.4607   -65.8580    -5.9591 H6            1 RES     
    1638 H6          81.3867   -64.0889    -6.1596 H6            1 RES     
    1639 H6          80.4340   -64.9743    -4.0256 H6            1 RES     
    1640 H6          81.9845   -65.7629    -3.6001 H6            1 RES     
    1641 H6          81.5189   -63.7623    -2.2455 H6            1 RES     
    1642 H6          83.0184   -63.5540    -3.1537 H6            1 RES     
    1643 H6          80.2441   -62.4013    -3.9122 H6            1 RES     
    1644 H6          81.6220   -61.4856    -3.1898 H6            1 RES     
    1645 H6          81.7628   -62.1360    -4.8594 H6            1 RES     
    1646 C0          87.3163   -68.4136   -17.4564 C0            1 RES     
    1647 C0          87.7600   -66.9992   -17.9041 C0            1 RES     
    1648 C0          88.8331   -66.9014   -19.0101 C0            1 RES     
    1649 C0          90.3059   -67.1612   -18.6072 C0            1 RES     
    1650 C0          90.7336   -66.3531   -17.3644 C0            1 RES     
    1651 C0          92.2488   -66.2419   -17.1415 C0            1 RES     
    1652 C0          92.8730   -65.1576   -18.0352 C0            1 RES     
    1653 C0          94.3708   -64.9783   -17.7468 C0            1 RES     
    1654 C0          94.9236   -63.7690   -18.5125 C0            1 RES     
    1655 C0          96.4590   -63.6103   -18.5490 C0            1 RES     
    1656 C0          97.2188   -63.3880   -17.2238 C0            1 RES     
    1657 C0          97.4563   -64.6737   -16.4056 C0            1 RES     
    1658 C0          98.2996   -64.4883   -15.1260 C0            1 RES     
    1659 C0          99.8396   -64.4340   -15.2850 C0            1 RES     
    1660 C0         100.4631   -63.2297   -16.0071 C0            1 RES     
    1661 C0         100.0857   -61.8942   -15.3692 C0            1 RES     
    1662 H6          88.1952   -69.0613   -17.2479 H6            1 RES     
    1663 H6          86.7991   -68.8449   -18.3428 H6            1 RES     
    1664 H6          86.8532   -66.5263   -18.3346 H6            1 RES     
    1665 H6          88.0894   -66.3671   -17.0688 H6            1 RES     
    1666 H6          88.5539   -67.5304   -19.8823 H6            1 RES     
    1667 H6          88.8099   -65.8419   -19.3509 H6            1 RES     
    1668 H6          90.4934   -68.2402   -18.4176 H6            1 RES     
    1669 H6          90.9189   -66.8584   -19.4824 H6            1 RES     
    1670 H6          90.3093   -65.3249   -17.3786 H6            1 RES     
    1671 H6          90.3229   -66.8890   -16.4985 H6            1 RES     
    1672 H6          92.7395   -67.2319   -17.2671 H6            1 RES     
    1673 H6          92.4049   -65.9105   -16.0919 H6            1 RES     
    1674 H6          92.7292   -65.4031   -19.1083 H6            1 RES     
    1675 H6          92.3550   -64.1956   -17.8188 H6            1 RES     
    1676 H6          94.4907   -64.7933   -16.6619 H6            1 RES     
    1677 H6          94.9043   -65.9064   -18.0445 H6            1 RES     
    1678 H6          94.6085   -63.8613   -19.5753 H6            1 RES     
    1679 H6          94.4614   -62.8431   -18.1027 H6            1 RES     
    1680 H6          96.9215   -64.4584   -19.0985 H6            1 RES     
    1681 H6          96.6277   -62.6961   -19.1614 H6            1 RES     
    1682 H6          96.7200   -62.6023   -16.6159 H6            1 RES     
    1683 H6          98.1977   -62.9959   -17.5270 H6            1 RES     
    1684 H6          96.4792   -65.0405   -16.0613 H6            1 RES     
    1685 H6          97.9133   -65.4701   -17.0319 H6            1 RES     
    1686 H6          98.1250   -65.4039   -14.5175 H6            1 RES     
    1687 H6          97.9157   -63.6344   -14.5286 H6            1 RES     
    1688 H6         100.2662   -64.4507   -14.2575 H6            1 RES     
    1689 H6         100.1796   -65.3607   -15.7969 H6            1 RES     
    1690 H6         101.5685   -63.3388   -15.9551 H6            1 RES     
    1691 H6         100.2124   -63.2347   -17.0820 H6            1 RES     
    1692 H6         100.3937   -61.8775   -14.3021 H6            1 RES     
    1693 H6         100.6049   -61.0704   -15.9024 H6            1 RES     
    1694 H6          98.9929   -61.7174   -15.4375 H6            1 RES     
    1695 C0          85.0136   -81.1308   -17.4918 C0            1 RES     
    1696 C1          84.2498   -79.7925   -17.4150 C1            1 RES     
    1697 C1          82.8529   -79.8580   -17.8916 C1            1 RES     
    1698 S2          82.5237   -78.2607   -18.6519 S2            1 RES     
    1699 C1          83.6416   -77.6417   -17.3747 C1            1 RES     
    1700 C1          84.5897   -78.5761   -17.0023 C1            1 RES     
    1701 C1          82.9125   -81.1046   -18.6402 C1            1 RES     
    1702 C1          84.0411   -81.8422   -18.4285 C1            1 RES     
    1703 C1          84.0189   -83.0746   -19.1062 C1            1 RES     
    1704 C1          82.8026   -83.2610   -19.8059 C1            1 RES     
    1705 S2          81.8020   -81.9088   -19.5711 S2            1 RES     
    1706 H3          85.5267   -78.2911   -16.5528 H3            1 RES     
    1707 H3          84.8256   -83.7965   -19.0788 H3            1 RES     
    1708 N4          83.3965   -85.2362   -21.1523 N4            1 RES     
    1709 C1          83.1239   -86.2861   -21.9828 C1            1 RES     
    1710 C1          81.8061   -86.5937   -22.3423 C1            1 RES     
    1711 C1          80.7818   -85.8066   -21.8313 C1            1 RES     
    1712 N4          79.4694   -86.0221   -22.0934 N4            1 RES     
    1713 S2          78.7374   -84.8181   -21.2318 S2            1 RES     
    1714 N4          80.0004   -84.0113   -20.5368 N4            1 RES     
    1715 C1          81.0803   -84.7057   -20.9831 C1            1 RES     
    1716 C1          82.4216   -84.4230   -20.6463 C1            1 RES     
    1717 H5          83.9359   -86.8852   -22.3742 H5            1 RES     
    1718 C0          84.9923   -81.8492   -16.1035 C0            1 RES     
    1719 C0          85.7603   -81.0993   -15.0105 C0            1 RES     
    1720 C0          85.6539   -81.6721   -13.5938 C0            1 RES     
    1721 C0          84.2430   -81.6930   -12.9845 C0            1 RES     
    1722 C0          83.4768   -80.3665   -13.1658 C0            1 RES     
    1723 C0          82.2062   -80.3119   -12.3089 C0            1 RES     
    1724 C0          82.5452   -79.9541   -10.8534 C0            1 RES     
    1725 C0          81.2994   -79.9577    -9.9666 C0            1 RES     
    1726 C0          81.6273   -79.3856    -8.5840 C0            1 RES     
    1727 C0          80.5638   -79.5926    -7.4871 C0            1 RES     
    1728 C0          79.1444   -79.0434    -7.7336 C0            1 RES     
    1729 C0          78.2682   -79.9594    -8.6172 C0            1 RES     
    1730 C0          76.8194   -79.4766    -8.8291 C0            1 RES     
    1731 C0          75.7996   -79.7637    -7.7008 C0            1 RES     
    1732 C0          75.9784   -79.0493    -6.3530 C0            1 RES     
    1733 C0          76.0156   -77.5283    -6.4881 C0            1 RES     
    1734 H6          83.9316   -81.9316   -15.7846 H6            1 RES     
    1735 H6          85.3933   -82.8821   -16.1963 H6            1 RES     
    1736 H6          86.8190   -81.1281   -15.2632 H6            1 RES     
    1737 H6          85.4352   -80.0434   -14.9672 H6            1 RES     
    1738 H6          86.0839   -82.6963   -13.5531 H6            1 RES     
    1739 H6          86.2845   -81.0175   -12.9511 H6            1 RES     
    1740 H6          83.6376   -82.5063   -13.4404 H6            1 RES     
    1741 H6          84.3768   -81.9389   -11.9109 H6            1 RES     
    1742 H6          84.1111   -79.4847   -12.9277 H6            1 RES     
    1743 H6          83.1837   -80.2966   -14.2352 H6            1 RES     
    1744 H6          81.6508   -81.2725   -12.3906 H6            1 RES     
    1745 H6          81.5519   -79.5007   -12.6972 H6            1 RES     
    1746 H6          83.2795   -80.6658   -10.4223 H6            1 RES     
    1747 H6          82.9989   -78.9373   -10.8525 H6            1 RES     
    1748 H6          80.5309   -79.3125   -10.4384 H6            1 RES     
    1749 H6          80.9365   -81.0054    -9.8823 H6            1 RES     
    1750 H6          82.5528   -79.8713    -8.2025 H6            1 RES     
    1751 H6          81.8397   -78.2992    -8.7005 H6            1 RES     
    1752 H6          80.4930   -80.6677    -7.2143 H6            1 RES     
    1753 H6          80.9712   -79.0585    -6.5996 H6            1 RES     
    1754 H6          79.1923   -78.0064    -8.1308 H6            1 RES     
    1755 H6          78.6864   -78.9956    -6.7383 H6            1 RES     
    1756 H6          78.7097   -79.9945    -9.6229 H6            1 RES     
    1757 H6          78.2544   -80.9997    -8.2258 H6            1 RES     
    1758 H6          76.4327   -80.0576    -9.6964 H6            1 RES     
    1759 H6          76.8096   -78.4091    -9.1345 H6            1 RES     
    1760 H6          74.8010   -79.4715    -8.0940 H6            1 RES     
    1761 H6          75.7721   -80.8594    -7.5126 H6            1 RES     
    1762 H6          75.1150   -79.3213    -5.7080 H6            1 RES     
    1763 H6          76.8741   -79.4173    -5.8234 H6            1 RES     
    1764 H6          75.0850   -77.1631    -6.9717 H6            1 RES     
    1765 H6          76.0980   -77.0701    -5.4803 H6            1 RES     
    1766 H6          76.8902   -77.2044    -7.0881 H6            1 RES     
    1767 C0          86.4472   -81.0676   -18.1639 C0            1 RES     
    1768 C0          87.3165   -79.8486   -17.7690 C0            1 RES     
    1769 C0          88.7834   -79.8283   -18.2508 C0            1 RES     
    1770 C0          89.8016   -80.7140   -17.4908 C0            1 RES     
    1771 C0          89.7311   -80.5224   -15.9614 C0            1 RES     
    1772 C0          90.9439   -81.0430   -15.1766 C0            1 RES     
    1773 C0          92.1168   -80.0500   -15.2257 C0            1 RES     
    1774 C0          93.2966   -80.5234   -14.3639 C0            1 RES     
    1775 C0          94.3716   -79.4317   -14.2798 C0            1 RES     
    1776 C0          95.7349   -79.8414   -13.6819 C0            1 RES     
    1777 C0          95.7954   -80.3125   -12.2132 C0            1 RES     
    1778 C0          95.3574   -81.7757   -11.9980 C0            1 RES     
    1779 C0          95.5039   -82.2965   -10.5523 C0            1 RES     
    1780 C0          96.9095   -82.7639   -10.0986 C0            1 RES     
    1781 C0          98.0231   -81.7153    -9.9548 C0            1 RES     
    1782 C0          97.6548   -80.5858    -8.9948 C0            1 RES     
    1783 H6          86.9742   -82.0219   -17.9470 H6            1 RES     
    1784 H6          86.3440   -80.9987   -19.2701 H6            1 RES     
    1785 H6          86.8377   -78.9731   -18.2543 H6            1 RES     
    1786 H6          87.3223   -79.6565   -16.6878 H6            1 RES     
    1787 H6          88.8388   -80.0252   -19.3429 H6            1 RES     
    1788 H6          89.1327   -78.7838   -18.0892 H6            1 RES     
    1789 H6          89.6615   -81.7914   -17.7258 H6            1 RES     
    1790 H6          90.8040   -80.4127   -17.8621 H6            1 RES     
    1791 H6          89.5746   -79.4552   -15.6893 H6            1 RES     
    1792 H6          88.8610   -81.1007   -15.6234 H6            1 RES     
    1793 H6          91.2315   -82.0595   -15.5239 H6            1 RES     
    1794 H6          90.6403   -81.1162   -14.1096 H6            1 RES     
    1795 H6          92.4588   -79.8985   -16.2709 H6            1 RES     
    1796 H6          91.7569   -79.0750   -14.8251 H6            1 RES     
    1797 H6          92.9167   -80.7233   -13.3434 H6            1 RES     
    1798 H6          93.7152   -81.4502   -14.8115 H6            1 RES     
    1799 H6          94.5918   -79.0853   -15.3137 H6            1 RES     
    1800 H6          93.9600   -78.5659   -13.7143 H6            1 RES     
    1801 H6          96.2287   -80.5975   -14.3297 H6            1 RES     
    1802 H6          96.3502   -78.9152   -13.7370 H6            1 RES     
    1803 H6          95.2305   -79.6154   -11.5569 H6            1 RES     
    1804 H6          96.8550   -80.2343   -11.9396 H6            1 RES     
    1805 H6          94.2845   -81.8443   -12.2263 H6            1 RES     
    1806 H6          95.8931   -82.4615   -12.6894 H6            1 RES     
    1807 H6          94.8852   -83.2205   -10.5032 H6            1 RES     
    1808 H6          95.0558   -81.5781    -9.8337 H6            1 RES     
    1809 H6          96.7803   -83.2369    -9.0999 H6            1 RES     
    1810 H6          97.2650   -83.5558   -10.7936 H6            1 RES     
    1811 H6          98.9238   -82.2305    -9.5549 H6            1 RES     
    1812 H6          98.3213   -81.3118   -10.9379 H6            1 RES     
    1813 H6          97.4118   -80.9977    -7.9924 H6            1 RES     
    1814 H6          98.5149   -79.8908    -8.8950 H6            1 RES     
    1815 H6          96.7860   -80.0106    -9.3748 H6            1 RES     
    1816 C0          82.0165   -91.4484   -24.4598 C0            1 RES     
    1817 C1          81.5861   -90.0102   -24.1039 C1            1 RES     
    1818 C1          80.6048   -89.4178   -25.0361 C1            1 RES     
    1819 S2          80.9972   -87.6630   -25.1038 S2            1 RES     
    1820 C1          81.4645   -87.9004   -23.3748 C1            1 RES     
    1821 C1          81.9166   -89.1815   -23.1193 C1            1 RES     
    1822 C1          80.7711   -90.3201   -26.1657 C1            1 RES     
    1823 C1          81.4929   -91.4460   -25.8934 C1            1 RES     
    1824 C1          81.5580   -92.3268   -26.9881 C1            1 RES     
    1825 C1          80.8145   -91.8414   -28.0905 C1            1 RES     
    1826 S2          80.1085   -90.3510   -27.6844 S2            1 RES     
    1827 H3          82.5597   -89.4042   -22.2838 H3            1 RES     
    1828 H3          82.0953   -93.2669   -26.9791 H3            1 RES     
    1829 N4          81.5824   -93.4063   -29.8307 N4            1 RES     
    1830 C1          81.5415   -93.9896   -31.0654 C1            1 RES     
    1831 C1          80.5250   -93.6744   -31.9751 C1            1 RES     
    1832 C1          79.5565   -92.7557   -31.5902 C1            1 RES     
    1833 N4          78.5159   -92.3897   -32.3779 N4            1 RES     
    1834 S2          77.7114   -91.3128   -31.4184 S2            1 RES     
    1835 N4          78.6179   -91.2658   -30.0381 N4            1 RES     
    1836 C1          79.6210   -92.1421   -30.3096 C1            1 RES     
    1837 C1          80.6638   -92.4811   -29.4208 C1            1 RES     
    1838 H5          82.3076   -94.6999   -31.3486 H5            1 RES     
    1839 C0          81.1946   -92.4838   -23.6253 C0            1 RES     
    1840 C0          81.4759   -92.4237   -22.1205 C0            1 RES     
    1841 C0          80.5958   -93.3078   -21.2315 C0            1 RES     
    1842 C0          79.0921   -92.9906   -21.2511 C0            1 RES     
    1843 C0          78.7808   -91.4860   -21.1147 C0            1 RES     
    1844 C0          77.2935   -91.2261   -20.8461 C0            1 RES     
    1845 C0          76.9577   -91.4624   -19.3653 C0            1 RES     
    1846 C0          75.4660   -91.2718   -19.0876 C0            1 RES     
    1847 C0          75.1972   -91.2934   -17.5797 C0            1 RES     
    1848 C0          73.7216   -91.4108   -17.1485 C0            1 RES     
    1849 C0          72.7306   -90.3350   -17.6362 C0            1 RES     
    1850 C0          72.2244   -90.5640   -19.0780 C0            1 RES     
    1851 C0          71.1788   -89.5463   -19.5760 C0            1 RES     
    1852 C0          69.7101   -89.7598   -19.1370 C0            1 RES     
    1853 C0          69.3579   -89.5909   -17.6517 C0            1 RES     
    1854 C0          69.7504   -88.2213   -17.1009 C0            1 RES     
    1855 H6          80.1177   -92.2633   -23.7836 H6            1 RES     
    1856 H6          81.3814   -93.5152   -23.9964 H6            1 RES     
    1857 H6          82.4978   -92.7612   -21.9555 H6            1 RES     
    1858 H6          81.3823   -91.3852   -21.7529 H6            1 RES     
    1859 H6          80.7453   -94.3814   -21.4779 H6            1 RES     
    1860 H6          80.9561   -93.1492   -20.1902 H6            1 RES     
    1861 H6          78.6332   -93.3537   -22.1963 H6            1 RES     
    1862 H6          78.6456   -93.5727   -20.4188 H6            1 RES     
    1863 H6          79.3819   -91.0088   -20.3100 H6            1 RES     
    1864 H6          79.0546   -91.0023   -22.0768 H6            1 RES     
    1865 H6          76.6699   -91.8477   -21.5262 H6            1 RES     
    1866 H6          77.0766   -90.1565   -21.0600 H6            1 RES     
    1867 H6          77.2419   -92.4860   -19.0443 H6            1 RES     
    1868 H6          77.5437   -90.7303   -18.7651 H6            1 RES     
    1869 H6          75.1589   -90.2825   -19.4832 H6            1 RES     
    1870 H6          74.9109   -92.0895   -19.5973 H6            1 RES     
    1871 H6          75.7128   -92.1725   -17.1335 H6            1 RES     
    1872 H6          75.6463   -90.3770   -17.1350 H6            1 RES     
    1873 H6          73.3213   -92.4148   -17.4073 H6            1 RES     
    1874 H6          73.7502   -91.3491   -16.0375 H6            1 RES     
    1875 H6          73.1634   -89.3197   -17.5049 H6            1 RES     
    1876 H6          71.8718   -90.4186   -16.9593 H6            1 RES     
    1877 H6          73.0765   -90.4601   -19.7640 H6            1 RES     
    1878 H6          71.8230   -91.5930   -19.2030 H6            1 RES     
    1879 H6          71.1492   -89.6629   -20.6828 H6            1 RES     
    1880 H6          71.5242   -88.5100   -19.3768 H6            1 RES     
    1881 H6          69.0996   -89.0214   -19.7022 H6            1 RES     
    1882 H6          69.3832   -90.7728   -19.4589 H6            1 RES     
    1883 H6          68.2571   -89.7058   -17.5491 H6            1 RES     
    1884 H6          69.8002   -90.3988   -17.0436 H6            1 RES     
    1885 H6          69.2556   -87.4166   -17.6849 H6            1 RES     
    1886 H6          69.4283   -88.1434   -16.0414 H6            1 RES     
    1887 H6          70.8494   -88.0779   -17.1399 H6            1 RES     
    1888 C0          83.5779   -91.7181   -24.4658 C0            1 RES     
    1889 C0          84.3709   -91.0751   -23.3016 C0            1 RES     
    1890 C0          85.8615   -91.4509   -23.1563 C0            1 RES     
    1891 C0          86.1979   -92.8286   -22.5337 C0            1 RES     
    1892 C0          85.4436   -93.0838   -21.2121 C0            1 RES     
    1893 C0          86.0058   -94.2174   -20.3422 C0            1 RES     
    1894 C0          87.2271   -93.7542   -19.5311 C0            1 RES     
    1895 C0          87.7334   -94.8567   -18.5894 C0            1 RES     
    1896 C0          88.8264   -94.3098   -17.6617 C0            1 RES     
    1897 C0          89.6285   -95.3453   -16.8442 C0            1 RES     
    1898 C0          88.8863   -96.2158   -15.8078 C0            1 RES     
    1899 C0          88.1235   -97.4116   -16.4139 C0            1 RES     
    1900 C0          87.4565   -98.3507   -15.3863 C0            1 RES     
    1901 C0          88.3524   -99.4102   -14.6974 C0            1 RES     
    1902 C0          89.4415   -98.9329   -13.7245 C0            1 RES     
    1903 C0          88.8870   -98.0835   -12.5826 C0            1 RES     
    1904 H6          83.7398   -92.8172   -24.5011 H6            1 RES     
    1905 H6          84.0318   -91.2939   -25.3894 H6            1 RES     
    1906 H6          84.3633   -89.9842   -23.5044 H6            1 RES     
    1907 H6          83.8964   -91.2259   -22.3228 H6            1 RES     
    1908 H6          86.3928   -91.3234   -24.1238 H6            1 RES     
    1909 H6          86.2868   -90.7034   -22.4495 H6            1 RES     
    1910 H6          85.9806   -93.6598   -23.2390 H6            1 RES     
    1911 H6          87.2926   -92.8191   -22.3466 H6            1 RES     
    1912 H6          85.3872   -92.1642   -20.5888 H6            1 RES     
    1913 H6          84.4243   -93.3764   -21.4967 H6            1 RES     
    1914 H6          86.2203   -95.1180   -20.9584 H6            1 RES     
    1915 H6          85.2214   -94.4854   -19.6014 H6            1 RES     
    1916 H6          88.0492   -93.4375   -20.2065 H6            1 RES     
    1917 H6          86.9171   -92.8796   -18.9150 H6            1 RES     
    1918 H6          86.8812   -95.1949   -17.9689 H6            1 RES     
    1919 H6          88.1255   -95.6963   -19.2025 H6            1 RES     
    1920 H6          89.5767   -93.7798   -18.2890 H6            1 RES     
    1921 H6          88.3720   -93.5612   -16.9745 H6            1 RES     
    1922 H6          90.2138   -96.0026   -17.5227 H6            1 RES     
    1923 H6          90.3620   -94.7357   -16.2701 H6            1 RES     
    1924 H6          88.2245   -95.5872   -15.1734 H6            1 RES     
    1925 H6          89.6783   -96.6142   -15.1613 H6            1 RES     
    1926 H6          87.3004   -97.0133   -17.0236 H6            1 RES     
    1927 H6          88.7794   -98.0093   -17.0831 H6            1 RES     
    1928 H6          86.7232   -98.9554   -15.9657 H6            1 RES     
    1929 H6          86.8689   -97.7641   -14.6487 H6            1 RES     
    1930 H6          87.6722  -100.0748   -14.1199 H6            1 RES     
    1931 H6          88.8351  -100.0348   -15.4806 H6            1 RES     
    1932 H6          89.9215   -99.8345   -13.2848 H6            1 RES     
    1933 H6          90.2455   -98.3960   -14.2570 H6            1 RES     
    1934 H6          88.1194   -98.6537   -12.0175 H6            1 RES     
    1935 H6          89.7112   -97.8131   -11.8896 H6            1 RES     
    1936 H6          88.4365   -97.1465   -12.9687 H6            1 RES     
    1937 C0          80.7725   -97.4155   -35.7219 C0            1 RES     
    1938 C1          80.5137   -96.0928   -34.9709 C1            1 RES     
    1939 C1          80.2342   -94.9369   -35.8476 C1            1 RES     
    1940 S2          80.9443   -93.5105   -35.0116 S2            1 RES     
    1941 C1          80.4717   -94.3998   -33.5117 C1            1 RES     
    1942 C1          80.4874   -95.7715   -33.6819 C1            1 RES     
    1943 C1          80.7411   -95.4620   -37.1067 C1            1 RES     
    1944 C1          81.0100   -96.8001   -37.0983 C1            1 RES     
    1945 C1          81.4176   -97.2795   -38.3562 C1            1 RES     
    1946 C1          81.4023   -96.2548   -39.3327 C1            1 RES     
    1947 S2          80.8936   -94.8003   -38.6184 S2            1 RES     
    1948 H3          80.5954   -96.4489   -32.8508 H3            1 RES     
    1949 H3          81.6905   -98.3086   -38.5538 H3            1 RES     
    1950 N4          82.5874   -97.4049   -41.1602 N4            1 RES     
    1951 C1          83.0292   -97.5417   -42.4457 C1            1 RES     
    1952 C1          82.6548   -96.6244   -43.4350 C1            1 RES     
    1953 C1          81.8202   -95.5728   -43.0779 C1            1 RES     
    1954 N4          81.3767   -94.6377   -43.9533 N4            1 RES     
    1955 S2          80.4386   -93.6753   -42.9934 S2            1 RES     
    1956 N4          80.5642   -94.3712   -41.5004 N4            1 RES     
    1957 C1          81.3826   -95.4313   -41.7329 C1            1 RES     
    1958 C1          81.7848   -96.3732   -40.7614 C1            1 RES     
    1959 H5          83.6824   -98.3654   -42.7035 H5            1 RES     
    1960 C0          79.4681   -98.2756   -35.7731 C0            1 RES     
    1961 C0          79.0013   -98.7681   -34.3996 C0            1 RES     
    1962 C0          77.6504   -99.4895   -34.3623 C0            1 RES     
    1963 C0          76.4336   -98.6546   -34.7920 C0            1 RES     
    1964 C0          76.3947   -97.2522   -34.1508 C0            1 RES     
    1965 C0          75.0431   -96.5588   -34.3604 C0            1 RES     
    1966 C0          74.0014   -97.0809   -33.3584 C0            1 RES     
    1967 C0          72.6282   -96.4497   -33.5917 C0            1 RES     
    1968 C0          71.6729   -96.8145   -32.4512 C0            1 RES     
    1969 C0          70.1801   -96.5065   -32.6830 C0            1 RES     
    1970 C0          69.7739   -95.0510   -32.9892 C0            1 RES     
    1971 C0          69.9850   -94.6439   -34.4647 C0            1 RES     
    1972 C0          69.5257   -93.2168   -34.8241 C0            1 RES     
    1973 C0          68.0164   -92.9984   -35.0880 C0            1 RES     
    1974 C0          67.0375   -93.1580   -33.9154 C0            1 RES     
    1975 C0          67.3769   -92.2538   -32.7320 C0            1 RES     
    1976 H6          78.6644   -97.6410   -36.2030 H6            1 RES     
    1977 H6          79.6047   -99.1454   -36.4521 H6            1 RES     
    1978 H6          79.7319   -99.4879   -34.0342 H6            1 RES     
    1979 H6          78.9475   -97.9250   -33.6864 H6            1 RES     
    1980 H6          77.6873  -100.4197   -34.9698 H6            1 RES     
    1981 H6          77.4921   -99.7874   -33.3015 H6            1 RES     
    1982 H6          76.4218   -98.5294   -35.8966 H6            1 RES     
    1983 H6          75.5400   -99.2507   -34.5146 H6            1 RES     
    1984 H6          76.6176   -97.2871   -33.0619 H6            1 RES     
    1985 H6          77.1833   -96.6417   -34.6406 H6            1 RES     
    1986 H6          74.7131   -96.6799   -35.4160 H6            1 RES     
    1987 H6          75.1678   -95.4719   -34.1602 H6            1 RES     
    1988 H6          73.8922   -98.1831   -33.4258 H6            1 RES     
    1989 H6          74.3589   -96.8248   -32.3355 H6            1 RES     
    1990 H6          72.7469   -95.3474   -33.6090 H6            1 RES     
    1991 H6          72.2373   -96.8192   -34.5649 H6            1 RES     
    1992 H6          71.7301   -97.9106   -32.2689 H6            1 RES     
    1993 H6          72.0232   -96.3001   -31.5283 H6            1 RES     
    1994 H6          69.7655   -97.1709   -33.4716 H6            1 RES     
    1995 H6          69.6854   -96.7895   -31.7269 H6            1 RES     
    1996 H6          70.2794   -94.3509   -32.2894 H6            1 RES     
    1997 H6          68.6985   -95.0106   -32.7782 H6            1 RES     
    1998 H6          71.0630   -94.6613   -34.6771 H6            1 RES     
    1999 H6          69.5007   -95.3695   -35.1537 H6            1 RES     
    2000 H6          70.0068   -92.9832   -35.8006 H6            1 RES     
    2001 H6          69.9281   -92.4862   -34.0911 H6            1 RES     
    2002 H6          67.9075   -91.9570   -35.4634 H6            1 RES     
    2003 H6          67.6931   -93.6790   -35.9059 H6            1 RES     
    2004 H6          66.0233   -92.8878   -34.2812 H6            1 RES     
    2005 H6          66.9683   -94.2120   -33.5955 H6            1 RES     
    2006 H6          67.3890   -91.1905   -33.0524 H6            1 RES     
    2007 H6          66.6097   -92.3793   -31.9395 H6            1 RES     
    2008 H6          68.3648   -92.5168   -32.3020 H6            1 RES     
    2009 C0          82.0602   -98.2219   -35.2721 C0            1 RES     
    2010 C0          82.3079   -98.2862   -33.7450 C0            1 RES     
    2011 C0          83.4420   -99.2051   -33.2411 C0            1 RES     
    2012 C0          83.1642  -100.7280   -33.1910 C0            1 RES     
    2013 C0          81.8367  -101.0671   -32.4816 C0            1 RES     
    2014 C0          81.6816  -102.5296   -32.0402 C0            1 RES     
    2015 C0          82.4300  -102.8052   -30.7257 C0            1 RES     
    2016 C0          82.1989  -104.2410   -30.2321 C0            1 RES     
    2017 C0          82.7979  -104.4301   -28.8322 C0            1 RES     
    2018 C0          82.8924  -105.8781   -28.3048 C0            1 RES     
    2019 C0          81.5919  -106.6812   -28.0895 C0            1 RES     
    2020 C0          80.9956  -107.2804   -29.3796 C0            1 RES     
    2021 C0          79.7502  -108.1688   -29.1734 C0            1 RES     
    2022 C0          79.9819  -109.6345   -28.7285 C0            1 RES     
    2023 C0          80.5425  -109.8970   -27.3223 C0            1 RES     
    2024 C0          79.6870  -109.2805   -26.2173 C0            1 RES     
    2025 H6          82.0018   -99.2413   -35.7112 H6            1 RES     
    2026 H6          82.9731   -97.7410   -35.6898 H6            1 RES     
    2027 H6          82.6107   -97.2602   -33.4501 H6            1 RES     
    2028 H6          81.4043   -98.5343   -33.1725 H6            1 RES     
    2029 H6          84.3844   -99.0017   -33.7934 H6            1 RES     
    2030 H6          83.6138   -98.9082   -32.1821 H6            1 RES     
    2031 H6          83.1536  -101.1751   -34.2086 H6            1 RES     
    2032 H6          84.0142  -101.1743   -32.6326 H6            1 RES     
    2033 H6          81.6694  -100.4179   -31.5939 H6            1 RES     
    2034 H6          81.0428  -100.8696   -33.2140 H6            1 RES     
    2035 H6          81.9846  -103.2219   -32.8561 H6            1 RES     
    2036 H6          80.6035  -102.6981   -31.8278 H6            1 RES     
    2037 H6          83.5187  -102.6268   -30.8494 H6            1 RES     
    2038 H6          82.0403  -102.1009   -29.9558 H6            1 RES     
    2039 H6          81.1065  -104.4113   -30.1739 H6            1 RES     
    2040 H6          82.6644  -104.9452   -30.9545 H6            1 RES     
    2041 H6          83.8436  -104.0513   -28.8513 H6            1 RES     
    2042 H6          82.2259  -103.8054   -28.1099 H6            1 RES     
    2043 H6          83.5902  -106.4726   -28.9331 H6            1 RES     
    2044 H6          83.3649  -105.7765   -27.3019 H6            1 RES     
    2045 H6          80.8441  -106.0711   -27.5378 H6            1 RES     
    2046 H6          81.8836  -107.5125   -27.4354 H6            1 RES     
    2047 H6          80.6596  -106.4486   -30.0146 H6            1 RES     
    2048 H6          81.7609  -107.8507   -29.9490 H6            1 RES     
    2049 H6          79.2815  -108.2646   -30.1785 H6            1 RES     
    2050 H6          79.0085  -107.6534   -28.5272 H6            1 RES     
    2051 H6          78.9939  -110.1432   -28.7824 H6            1 RES     
    2052 H6          80.6482  -110.1317   -29.4669 H6            1 RES     
    2053 H6          80.5678  -110.9979   -27.1679 H6            1 RES     
    2054 H6          81.5902  -109.5595   -27.2404 H6            1 RES     
    2055 H6          78.6484  -109.6702   -26.2731 H6            1 RES     
    2056 H6          80.1142  -109.5465   -25.2277 H6            1 RES     
    2057 H6          79.6681  -108.1748   -26.3013 H6            1 RES     
    2058 C0          83.9299   -98.9158   -48.0414 C0            1 RES     
    2059 C1          83.6066   -97.8743   -46.9500 C1            1 RES     
    2060 C1          84.0114   -96.4933   -47.2843 C1            1 RES     
    2061 S2          84.4976   -95.7387   -45.7247 S2            1 RES     
    2062 C1          83.2026   -96.7932   -45.0354 C1            1 RES     
    2063 C1          83.0304   -97.9603   -45.7558 C1            1 RES     
    2064 C1          84.9453   -96.7714   -48.3652 C1            1 RES     
    2065 C1          84.9111   -98.0538   -48.8311 C1            1 RES     
    2066 C1          85.7683   -98.2557   -49.9278 C1            1 RES     
    2067 C1          86.4216   -97.0576   -50.3041 C1            1 RES     
    2068 S2          85.9275   -95.7976   -49.2781 S2            1 RES     
    2069 H3          82.5937   -98.8428   -45.3178 H3            1 RES     
    2070 H3          85.8962   -99.2061   -50.4308 H3            1 RES     
    2071 N4          88.0863   -97.9680   -51.8747 N4            1 RES     
    2072 C1          89.0527   -97.8717   -52.8356 C1            1 RES     
    2073 C1          89.3836   -96.6335   -53.3994 C1            1 RES     
    2074 C1          88.7027   -95.5052   -52.9598 C1            1 RES     
    2075 N4          88.9235   -94.2597   -53.4471 N4            1 RES     
    2076 S2          87.8484   -93.3498   -52.5845 S2            1 RES     
    2077 N4          87.1068   -94.4499   -51.6001 N4            1 RES     
    2078 C1          87.7124   -95.6165   -51.9462 C1            1 RES     
    2079 C1          87.4091   -96.8812   -51.3974 C1            1 RES     
    2080 H5          89.5751   -98.7617   -53.1620 H5            1 RES     
    2081 C0          82.6697   -99.1842   -48.9267 C0            1 RES     
    2082 C0          81.5174   -99.8532   -48.1707 C0            1 RES     
    2083 C0          80.2022  -100.0081   -48.9407 C0            1 RES     
    2084 C0          79.5280   -98.7000   -49.3840 C0            1 RES     
    2085 C0          79.4611   -97.6359   -48.2693 C0            1 RES     
    2086 C0          78.5386   -96.4684   -48.6401 C0            1 RES     
    2087 C0          77.0658   -96.8442   -48.4139 C0            1 RES     
    2088 C0          76.1241   -95.7168   -48.8387 C0            1 RES     
    2089 C0          74.6897   -96.0260   -48.3993 C0            1 RES     
    2090 C0          73.5819   -95.1407   -49.0045 C0            1 RES     
    2091 C0          73.6637   -93.6168   -48.7851 C0            1 RES     
    2092 C0          74.6292   -92.9000   -49.7553 C0            1 RES     
    2093 C0          74.6855   -91.3660   -49.6114 C0            1 RES     
    2094 C0          73.5614   -90.5444   -50.2874 C0            1 RES     
    2095 C0          72.1313   -90.6732   -49.7424 C0            1 RES     
    2096 C0          72.0323   -90.3469   -48.2535 C0            1 RES     
    2097 H6          82.3105   -98.2037   -49.3051 H6            1 RES     
    2098 H6          82.9421   -99.8024   -49.8099 H6            1 RES     
    2099 H6          81.8284  -100.8632   -47.9088 H6            1 RES     
    2100 H6          81.2945   -99.2988   -47.2404 H6            1 RES     
    2101 H6          80.3432  -100.6643   -49.8267 H6            1 RES     
    2102 H6          79.5014  -100.5258   -48.2477 H6            1 RES     
    2103 H6          80.0704   -98.2600   -50.2489 H6            1 RES     
    2104 H6          78.5140   -98.9819   -49.7350 H6            1 RES     
    2105 H6          79.1246   -98.0688   -47.3017 H6            1 RES     
    2106 H6          80.4896   -97.2405   -48.1263 H6            1 RES     
    2107 H6          78.7371   -96.1441   -49.6857 H6            1 RES     
    2108 H6          78.7613   -95.6130   -47.9652 H6            1 RES     
    2109 H6          76.7899   -97.7580   -48.9798 H6            1 RES     
    2110 H6          76.9328   -97.0498   -47.3277 H6            1 RES     
    2111 H6          76.4486   -94.7814   -48.3394 H6            1 RES     
    2112 H6          76.1827   -95.6139   -49.9444 H6            1 RES     
    2113 H6          74.4381   -97.0686   -48.6952 H6            1 RES     
    2114 H6          74.6487   -95.9712   -47.2883 H6            1 RES     
    2115 H6          73.4745   -95.3440   -50.0919 H6            1 RES     
    2116 H6          72.6460   -95.4916   -48.5146 H6            1 RES     
    2117 H6          73.8984   -93.3891   -47.7228 H6            1 RES     
    2118 H6          72.6496   -93.2506   -48.9857 H6            1 RES     
    2119 H6          75.6506   -93.2463   -49.5451 H6            1 RES     
    2120 H6          74.4026   -93.1611   -50.8118 H6            1 RES     
    2121 H6          75.6098   -91.0478   -50.1442 H6            1 RES     
    2122 H6          74.8218   -91.0834   -48.5463 H6            1 RES     
    2123 H6          73.8504   -89.4744   -50.1935 H6            1 RES     
    2124 H6          73.5431   -90.7868   -51.3726 H6            1 RES     
    2125 H6          71.4902   -89.9566   -50.2999 H6            1 RES     
    2126 H6          71.7140   -91.6730   -49.9527 H6            1 RES     
    2127 H6          72.4028   -89.3180   -48.0605 H6            1 RES     
    2128 H6          70.9719   -90.4110   -47.9313 H6            1 RES     
    2129 H6          72.6216   -91.0665   -47.6494 H6            1 RES     
    2130 C0          84.6608  -100.2306   -47.5433 C0            1 RES     
    2131 C0          84.1303  -100.8274   -46.2166 C0            1 RES     
    2132 C0          84.6819  -102.2013   -45.7778 C0            1 RES     
    2133 C0          84.1236  -103.4597   -46.4876 C0            1 RES     
    2134 C0          82.5814  -103.4834   -46.5297 C0            1 RES     
    2135 C0          81.9529  -104.8485   -46.8451 C0            1 RES     
    2136 C0          81.9118  -105.7520   -45.6018 C0            1 RES     
    2137 C0          81.1983  -107.0811   -45.8903 C0            1 RES     
    2138 C0          81.0052  -107.8789   -44.5939 C0            1 RES     
    2139 C0          80.5522  -109.3477   -44.7409 C0            1 RES     
    2140 C0          79.1791  -109.6455   -45.3800 C0            1 RES     
    2141 C0          79.1685  -109.5772   -46.9209 C0            1 RES     
    2142 C0          77.8304  -109.9679   -47.5838 C0            1 RES     
    2143 C0          77.5308  -111.4780   -47.7565 C0            1 RES     
    2144 C0          77.2876  -112.3285   -46.5002 C0            1 RES     
    2145 C0          76.1466  -111.7970   -45.6351 C0            1 RES     
    2146 H6          84.6223  -100.9803   -48.3629 H6            1 RES     
    2147 H6          85.7360  -100.0162   -47.3506 H6            1 RES     
    2148 H6          84.4484  -100.1186   -45.4243 H6            1 RES     
    2149 H6          83.0344  -100.8852   -46.1786 H6            1 RES     
    2150 H6          85.7926  -102.2031   -45.8042 H6            1 RES     
    2151 H6          84.3805  -102.3137   -44.7122 H6            1 RES     
    2152 H6          84.5139  -103.5511   -47.5243 H6            1 RES     
    2153 H6          84.4977  -104.3286   -45.9058 H6            1 RES     
    2154 H6          82.1401  -103.1103   -45.5792 H6            1 RES     
    2155 H6          82.2900  -102.8036   -47.3412 H6            1 RES     
    2156 H6          82.4677  -105.3304   -47.7051 H6            1 RES     
    2157 H6          80.8951  -104.6662   -47.1347 H6            1 RES     
    2158 H6          82.9381  -105.9555   -45.2307 H6            1 RES     
    2159 H6          81.3469  -105.2144   -44.8064 H6            1 RES     
    2160 H6          80.2017  -106.8498   -46.3135 H6            1 RES     
    2161 H6          81.8053  -107.6603   -46.6187 H6            1 RES     
    2162 H6          81.9838  -107.9205   -44.0665 H6            1 RES     
    2163 H6          80.2917  -107.3310   -43.9385 H6            1 RES     
    2164 H6          81.3345  -109.9425   -45.2598 H6            1 RES     
    2165 H6          80.4972  -109.7256   -43.6952 H6            1 RES     
    2166 H6          78.3937  -108.9961   -44.9361 H6            1 RES     
    2167 H6          78.9544  -110.6787   -45.0870 H6            1 RES     
    2168 H6          79.3463  -108.5330   -47.2140 H6            1 RES     
    2169 H6          79.9852  -110.1927   -47.3561 H6            1 RES     
    2170 H6          77.8908  -109.5855   -48.6275 H6            1 RES     
    2171 H6          76.9865  -109.4322   -47.0998 H6            1 RES     
    2172 H6          76.6114  -111.5507   -48.3787 H6            1 RES     
    2173 H6          78.3577  -111.9430   -48.3365 H6            1 RES     
    2174 H6          77.0212  -113.3555   -46.8330 H6            1 RES     
    2175 H6          78.2115  -112.4370   -45.9062 H6            1 RES     
    2176 H6          75.2079  -111.7456   -46.2266 H6            1 RES     
    2177 H6          75.9875  -112.4793   -44.7738 H6            1 RES     
    2178 H6          76.3858  -110.7888   -45.2397 H6            1 RES     
    2179 C0          92.2319   -97.7667   -57.7236 C0            1 RES     
    2180 C1          91.6360   -97.0501   -56.4940 C1            1 RES     
    2181 C1          92.4113   -95.8798   -56.0337 C1            1 RES     
    2182 S2          92.2289   -95.8500   -54.2438 S2            1 RES     
    2183 C1          90.5850   -96.5115   -54.5959 C1            1 RES     
    2184 C1          90.5548   -97.2673   -55.7529 C1            1 RES     
    2185 C1          93.6738   -96.1481   -56.7060 C1            1 RES     
    2186 C1          93.6176   -97.1311   -57.6511 C1            1 RES     
    2187 C1          94.8369   -97.2995   -58.3320 C1            1 RES     
    2188 C1          95.8095   -96.3690   -57.8938 C1            1 RES     
    2189 S2          95.1410   -95.3778   -56.6875 S2            1 RES     
    2190 H3          89.7996   -98.0163   -55.9263 H3            1 RES     
    2191 H3          95.0019   -98.0374   -59.1071 H3            1 RES     
    2192 N4          97.8089   -97.3185   -58.9743 N4            1 RES     
    2193 C1          99.1147   -97.3033   -59.3757 C1            1 RES     
    2194 C1          99.9087   -96.1645   -59.1932 C1            1 RES     
    2195 C1          99.3350   -95.0488   -58.5965 C1            1 RES     
    2196 N4          99.9995   -93.8859   -58.3877 N4            1 RES     
    2197 S2          98.8435   -92.9438   -57.6781 S2            1 RES     
    2198 N4          97.5235   -93.9344   -57.6035 N4            1 RES     
    2199 C1          97.9806   -95.0840   -58.1666 C1            1 RES     
    2200 C1          97.2123   -96.2518   -58.3628 C1            1 RES     
    2201 H5          99.5449   -98.1839   -59.8349 H5            1 RES     
    2202 C0          91.5237   -97.2831   -59.0306 C0            1 RES     
    2203 C0          90.0451   -97.6758   -59.1110 C0            1 RES     
    2204 C0          89.2566   -97.1058   -60.2942 C0            1 RES     
    2205 C0          89.1458   -95.5738   -60.3490 C0            1 RES     
    2206 C0          88.7626   -94.9378   -58.9969 C0            1 RES     
    2207 C0          88.3771   -93.4607   -59.1423 C0            1 RES     
    2208 C0          86.9344   -93.3215   -59.6529 C0            1 RES     
    2209 C0          86.5504   -91.8569   -59.8671 C0            1 RES     
    2210 C0          85.0516   -91.7357   -60.1589 C0            1 RES     
    2211 C0          84.5645   -90.3713   -60.6863 C0            1 RES     
    2212 C0          84.8262   -89.1198   -59.8246 C0            1 RES     
    2213 C0          86.2566   -88.5535   -59.9693 C0            1 RES     
    2214 C0          86.5346   -87.2616   -59.1752 C0            1 RES     
    2215 C0          86.0550   -85.9266   -59.7942 C0            1 RES     
    2216 C0          84.5445   -85.6788   -59.9200 C0            1 RES     
    2217 C0          83.8114   -85.7928   -58.5849 C0            1 RES     
    2218 H6          91.5877   -96.1746   -59.0565 H6            1 RES     
    2219 H6          92.0588   -97.6685   -59.9258 H6            1 RES     
    2220 H6          89.9896   -98.7585   -59.2117 H6            1 RES     
    2221 H6          89.5173   -97.3787   -58.1860 H6            1 RES     
    2222 H6          89.6732   -97.4759   -61.2560 H6            1 RES     
    2223 H6          88.2243   -97.5112   -60.1974 H6            1 RES     
    2224 H6          90.1094   -95.1286   -60.6790 H6            1 RES     
    2225 H6          88.3902   -95.3493   -61.1298 H6            1 RES     
    2226 H6          87.9276   -95.4821   -58.5038 H6            1 RES     
    2227 H6          89.6521   -95.0061   -58.3346 H6            1 RES     
    2228 H6          89.1101   -92.9389   -59.7967 H6            1 RES     
    2229 H6          88.4116   -92.9851   -58.1375 H6            1 RES     
    2230 H6          86.7908   -93.8613   -60.6118 H6            1 RES     
    2231 H6          86.2611   -93.7743   -58.8904 H6            1 RES     
    2232 H6          86.7717   -91.2963   -58.9364 H6            1 RES     
    2233 H6          87.1493   -91.4619   -60.7167 H6            1 RES     
    2234 H6          84.7747   -92.4776   -60.9404 H6            1 RES     
    2235 H6          84.4959   -91.9995   -59.2311 H6            1 RES     
    2236 H6          84.9528   -90.1915   -61.7120 H6            1 RES     
    2237 H6          83.4604   -90.4837   -60.7721 H6            1 RES     
    2238 H6          84.5637   -89.3171   -58.7627 H6            1 RES     
    2239 H6          84.1249   -88.3671   -60.2044 H6            1 RES     
    2240 H6          86.9635   -89.2942   -59.5703 H6            1 RES     
    2241 H6          86.5168   -88.3904   -61.0376 H6            1 RES     
    2242 H6          87.6429   -87.1612   -59.1429 H6            1 RES     
    2243 H6          86.1971   -87.3754   -58.1234 H6            1 RES     
    2244 H6          86.4658   -85.1147   -59.1544 H6            1 RES     
    2245 H6          86.5109   -85.8145   -60.8023 H6            1 RES     
    2246 H6          84.4015   -84.6477   -60.3096 H6            1 RES     
    2247 H6          84.0930   -86.3475   -60.6730 H6            1 RES     
    2248 H6          84.2367   -85.0760   -57.8510 H6            1 RES     
    2249 H6          82.7366   -85.5571   -58.7326 H6            1 RES     
    2250 H6          83.8872   -86.8212   -58.1769 H6            1 RES     
    2251 C0          92.3638   -99.3414   -57.6057 C0            1 RES     
    2252 C0          91.1591  -100.0655   -56.9561 C0            1 RES     
    2253 C0          91.1542  -101.6094   -56.9780 C0            1 RES     
    2254 C0          90.7704  -102.3080   -58.3059 C0            1 RES     
    2255 C0          89.4651  -101.7536   -58.9137 C0            1 RES     
    2256 C0          88.8120  -102.6369   -59.9866 C0            1 RES     
    2257 C0          88.0064  -103.7860   -59.3582 C0            1 RES     
    2258 C0          87.2746  -104.6144   -60.4245 C0            1 RES     
    2259 C0          86.3342  -105.6302   -59.7626 C0            1 RES     
    2260 C0          85.7305  -106.7187   -60.6762 C0            1 RES     
    2261 C0          84.8021  -106.2924   -61.8333 C0            1 RES     
    2262 C0          85.5430  -105.7746   -63.0831 C0            1 RES     
    2263 C0          84.6378  -105.4359   -64.2867 C0            1 RES     
    2264 C0          84.1698  -106.6095   -65.1832 C0            1 RES     
    2265 C0          83.1954  -107.6417   -64.5954 C0            1 RES     
    2266 C0          81.9079  -107.0104   -64.0691 C0            1 RES     
    2267 H6          92.5768   -99.7482   -58.6179 H6            1 RES     
    2268 H6          93.2343   -99.6013   -56.9624 H6            1 RES     
    2269 H6          91.1906   -99.7888   -55.8820 H6            1 RES     
    2270 H6          90.1910   -99.7275   -57.3493 H6            1 RES     
    2271 H6          92.1178  -102.0087   -56.5951 H6            1 RES     
    2272 H6          90.3647  -101.9123   -56.2540 H6            1 RES     
    2273 H6          91.5826  -102.2261   -59.0604 H6            1 RES     
    2274 H6          90.6436  -103.3833   -58.0587 H6            1 RES     
    2275 H6          88.7054  -101.5428   -58.1290 H6            1 RES     
    2276 H6          89.7359  -100.8079   -59.4015 H6            1 RES     
    2277 H6          89.5702  -102.9973   -60.7159 H6            1 RES     
    2278 H6          88.0799  -102.0045   -60.5344 H6            1 RES     
    2279 H6          88.6684  -104.4496   -58.7635 H6            1 RES     
    2280 H6          87.2471  -103.3391   -58.6769 H6            1 RES     
    2281 H6          86.6684  -103.9217   -61.0397 H6            1 RES     
    2282 H6          88.0300  -105.1331   -61.0528 H6            1 RES     
    2283 H6          86.9120  -106.1794   -58.9868 H6            1 RES     
    2284 H6          85.5163  -105.0788   -59.2469 H6            1 RES     
    2285 H6          86.5328  -107.3769   -61.0739 H6            1 RES     
    2286 H6          85.1099  -107.3403   -59.9923 H6            1 RES     
    2287 H6          84.0436  -105.5627   -61.4755 H6            1 RES     
    2288 H6          84.2684  -107.2092   -62.1137 H6            1 RES     
    2289 H6          86.0386  -104.8309   -62.8152 H6            1 RES     
    2290 H6          86.3308  -106.4882   -63.4078 H6            1 RES     
    2291 H6          85.2630  -104.8130   -64.9651 H6            1 RES     
    2292 H6          83.7880  -104.7972   -63.9656 H6            1 RES     
    2293 H6          83.6657  -106.1549   -66.0647 H6            1 RES     
    2294 H6          85.0649  -107.1513   -65.5599 H6            1 RES     
    2295 H6          82.9264  -108.3535   -65.4062 H6            1 RES     
    2296 H6          83.6815  -108.2497   -63.8129 H6            1 RES     
    2297 H6          81.3968  -106.4482   -64.8792 H6            1 RES     
    2298 H6          81.2272  -107.8085   -63.7055 H6            1 RES     
    2299 H6          82.1201  -106.3237   -63.2244 H6            1 RES     
    2300 C0         104.1950   -96.9322   -62.2155 C0            1 RES     
    2301 C1         103.2362   -96.4437   -61.1098 C1            1 RES     
    2302 C1         103.9080   -95.8286   -59.9465 C1            1 RES     
    2303 S2         102.9019   -96.2627   -58.5192 S2            1 RES     
    2304 C1         101.5335   -96.1431   -59.6928 C1            1 RES     
    2305 C1         101.9136   -96.4590   -60.9837 C1            1 RES     
    2306 C1         105.2585   -96.3285   -60.1566 C1            1 RES     
    2307 C1         105.4709   -96.8980   -61.3786 C1            1 RES     
    2308 C1         106.8079   -97.2914   -61.5689 C1            1 RES     
    2309 C1         107.6125   -96.9536   -60.4544 C1            1 RES     
    2310 S2         106.6562   -96.1893   -59.2772 S2            1 RES     
    2311 H3         101.2039   -96.7937   -61.7224 H3            1 RES     
    2312 H3         107.1761   -97.7752   -62.4650 H3            1 RES     
    2313 N4         109.6568   -98.2040   -61.0239 N4            1 RES     
    2314 C1         110.9700   -98.5491   -60.8730 C1            1 RES     
    2315 C1         111.7844   -97.8870   -59.9464 C1            1 RES     
    2316 C1         111.2250   -96.8679   -59.1859 C1            1 RES     
    2317 N4         111.9206   -96.1448   -58.2744 N4            1 RES     
    2318 S2         110.7746   -95.0996   -57.7071 S2            1 RES     
    2319 N4         109.4156   -95.5146   -58.5498 N4            1 RES     
    2320 C1         109.8526   -96.5310   -59.3395 C1            1 RES     
    2321 C1         109.0610   -97.2242   -60.2805 C1            1 RES     
    2322 H5         111.3866   -99.3488   -61.4718 H5            1 RES     
    2323 C0         104.3075   -95.8616   -63.3492 C0            1 RES     
    2324 C0         103.0031   -95.6450   -64.1229 C0            1 RES     
    2325 C0         103.0044   -94.5054   -65.1465 C0            1 RES     
    2326 C0         103.2339   -93.0958   -64.5786 C0            1 RES     
    2327 C0         102.3831   -92.7922   -63.3283 C0            1 RES     
    2328 C0         102.4099   -91.3041   -62.9590 C0            1 RES     
    2329 C0         101.4455   -90.5042   -63.8487 C0            1 RES     
    2330 C0         101.5042   -89.0074   -63.5411 C0            1 RES     
    2331 C0         100.3835   -88.2672   -64.2778 C0            1 RES     
    2332 C0         100.4841   -86.7291   -64.3098 C0            1 RES     
    2333 C0         100.5399   -85.9730   -62.9673 C0            1 RES     
    2334 C0         101.9443   -85.9524   -62.3233 C0            1 RES     
    2335 C0         102.0542   -85.1467   -61.0136 C0            1 RES     
    2336 C0         102.1993   -83.6103   -61.1312 C0            1 RES     
    2337 C0         101.0140   -82.8029   -61.6808 C0            1 RES     
    2338 C0          99.7256   -83.0290   -60.8922 C0            1 RES     
    2339 H6         104.5904   -94.8984   -62.8742 H6            1 RES     
    2340 H6         105.1188   -96.1338   -64.0591 H6            1 RES     
    2341 H6         102.7929   -96.5514   -64.6884 H6            1 RES     
    2342 H6         102.1666   -95.4623   -63.4233 H6            1 RES     
    2343 H6         103.7490   -94.7013   -65.9483 H6            1 RES     
    2344 H6         101.9951   -94.5151   -65.6161 H6            1 RES     
    2345 H6         104.3036   -92.9572   -64.3101 H6            1 RES     
    2346 H6         103.0037   -92.3918   -65.4047 H6            1 RES     
    2347 H6         101.3262   -93.1133   -63.4571 H6            1 RES     
    2348 H6         102.8149   -93.3723   -62.4847 H6            1 RES     
    2349 H6         103.4522   -90.9182   -63.0104 H6            1 RES     
    2350 H6         102.0517   -91.1925   -61.9120 H6            1 RES     
    2351 H6         101.6759   -90.6462   -64.9249 H6            1 RES     
    2352 H6         100.4162   -90.8827   -63.6565 H6            1 RES     
    2353 H6         101.3578   -88.8670   -62.4510 H6            1 RES     
    2354 H6         102.5001   -88.6270   -63.8571 H6            1 RES     
    2355 H6         100.3756   -88.5913   -65.3422 H6            1 RES     
    2356 H6          99.4127   -88.5705   -63.8254 H6            1 RES     
    2357 H6         101.3420   -86.4101   -64.9402 H6            1 RES     
    2358 H6          99.5576   -86.4000   -64.8318 H6            1 RES     
    2359 H6          99.7689   -86.3640   -62.2686 H6            1 RES     
    2360 H6         100.2673   -84.9404   -63.2164 H6            1 RES     
    2361 H6         102.2148   -86.9821   -62.0513 H6            1 RES     
    2362 H6         102.7097   -85.5888   -63.0428 H6            1 RES     
    2363 H6         103.0076   -85.4721   -60.5395 H6            1 RES     
    2364 H6         101.2402   -85.4336   -60.3150 H6            1 RES     
    2365 H6         102.4033   -83.2316   -60.1054 H6            1 RES     
    2366 H6         103.0936   -83.3809   -61.7511 H6            1 RES     
    2367 H6         101.2785   -81.7253   -61.6154 H6            1 RES     
    2368 H6         100.8571   -83.0071   -62.7540 H6            1 RES     
    2369 H6          99.8786   -82.7674   -59.8238 H6            1 RES     
    2370 H6          98.9216   -82.3850   -61.3061 H6            1 RES     
    2371 H6          99.3953   -84.0851   -60.9658 H6            1 RES     
    2372 C0         103.9451   -98.4058   -62.7417 C0            1 RES     
    2373 C0         102.4617   -98.7967   -62.9528 C0            1 RES     
    2374 C0         102.1675  -100.1521   -63.6314 C0            1 RES     
    2375 C0         102.3377  -100.2381   -65.1685 C0            1 RES     
    2376 C0         101.6183   -99.0929   -65.9112 C0            1 RES     
    2377 C0         101.3998   -99.3188   -67.4143 C0            1 RES     
    2378 C0         100.1858  -100.2245   -67.6786 C0            1 RES     
    2379 C0          99.9076  -100.3751   -69.1815 C0            1 RES     
    2380 C0          98.5879  -101.1238   -69.4104 C0            1 RES     
    2381 C0          98.2959  -101.5959   -70.8512 C0            1 RES     
    2382 C0          98.1368  -100.5397   -71.9655 C0            1 RES     
    2383 C0          99.4697   -99.9850   -72.5084 C0            1 RES     
    2384 C0          99.3358   -99.0011   -73.6903 C0            1 RES     
    2385 C0          99.1352   -99.6028   -75.1036 C0            1 RES     
    2386 C0          97.8186  -100.3317   -75.4133 C0            1 RES     
    2387 C0          96.5873   -99.4591   -75.1782 C0            1 RES     
    2388 H6         104.5322   -98.5448   -63.6752 H6            1 RES     
    2389 H6         104.3325   -99.1425   -62.0026 H6            1 RES     
    2390 H6         102.0291   -98.8801   -61.9344 H6            1 RES     
    2391 H6         101.8864   -98.0291   -63.4872 H6            1 RES     
    2392 H6         102.7321  -100.9693   -63.1333 H6            1 RES     
    2393 H6         101.0863  -100.3446   -63.4498 H6            1 RES     
    2394 H6         103.4100  -100.2401   -65.4614 H6            1 RES     
    2395 H6         101.9016  -101.2143   -65.4690 H6            1 RES     
    2396 H6         100.6335   -98.8604   -65.4492 H6            1 RES     
    2397 H6         102.2675   -98.2129   -65.8125 H6            1 RES     
    2398 H6         102.3278   -99.6992   -67.8948 H6            1 RES     
    2399 H6         101.1579   -98.3317   -67.8649 H6            1 RES     
    2400 H6         100.3393  -101.2274   -67.2280 H6            1 RES     
    2401 H6          99.2967   -99.7533   -67.2012 H6            1 RES     
    2402 H6          99.8174   -99.3610   -69.6162 H6            1 RES     
    2403 H6         100.7540  -100.9240   -69.6470 H6            1 RES     
    2404 H6          98.6050  -102.0483   -68.7919 H6            1 RES     
    2405 H6          97.7482  -100.4901   -69.0468 H6            1 RES     
    2406 H6          99.0451  -102.3530   -71.1683 H6            1 RES     
    2407 H6          97.3163  -102.1197   -70.7770 H6            1 RES     
    2408 H6          97.4582   -99.7237   -71.6350 H6            1 RES     
    2409 H6          97.6354  -101.0721   -72.7835 H6            1 RES     
    2410 H6          99.9499   -99.4113   -71.7032 H6            1 RES     
    2411 H6         100.1608  -100.8072   -72.7941 H6            1 RES     
    2412 H6         100.3169   -98.4794   -73.7577 H6            1 RES     
    2413 H6          98.5788   -98.2212   -73.4621 H6            1 RES     
    2414 H6          99.2134   -98.7577   -75.8231 H6            1 RES     
    2415 H6          99.9764  -100.2971   -75.3198 H6            1 RES     
    2416 H6          97.8373  -100.6235   -76.4861 H6            1 RES     
    2417 H6          97.7426  -101.2765   -74.8478 H6            1 RES     
    2418 H6          96.6462   -98.5375   -75.7953 H6            1 RES     
    2419 H6          95.6750  -100.0225   -75.4663 H6            1 RES     
    2420 H6          96.4988   -99.1787   -74.1089 H6            1 RES     
    2421 C0         116.7510   -99.2400   -61.2106 C0            1 RES     
    2422 C1         115.4963   -98.7841   -60.4371 C1            1 RES     
    2423 C1         115.6352   -98.8285   -58.9668 C1            1 RES     
    2424 S2         114.0066   -99.2648   -58.3382 S2            1 RES     
    2425 C1         113.4190   -98.3141   -59.7577 C1            1 RES     
    2426 C1         114.3003   -98.3519   -60.8220 C1            1 RES     
    2427 C1         116.7950   -99.7013   -58.8612 C1            1 RES     
    2428 C1         117.4503   -99.9219   -60.0378 C1            1 RES     
    2429 C1         118.6098  -100.7014   -59.8752 C1            1 RES     
    2430 C1         118.8319  -101.0250   -58.5152 C1            1 RES     
    2431 S2         117.5987  -100.3475   -57.5640 S2            1 RES     
    2432 H3         113.9804   -98.1709   -61.8350 H3            1 RES     
    2433 H3         119.2594  -100.9994   -60.6888 H3            1 RES     
    2434 N4         120.6116  -102.7080   -58.7740 N4            1 RES     
    2435 C1         121.5970  -103.5367   -58.3171 C1            1 RES     
    2436 C1         121.9804  -103.5220   -56.9706 C1            1 RES     
    2437 C1         121.3360  -102.6415   -56.1106 C1            1 RES     
    2438 N4         121.6368  -102.5253   -54.7940 N4            1 RES     
    2439 S2         120.5875  -101.3508   -54.2968 S2            1 RES     
    2440 N4         119.7457  -100.9731   -55.6671 N4            1 RES     
    2441 C1         120.2996  -101.7978   -56.5948 C1            1 RES     
    2442 C1         119.9366  -101.8440   -57.9581 C1            1 RES     
    2443 H5         122.0844  -104.2187   -59.0018 H5            1 RES     
    2444 C0         117.5977   -98.0018   -61.6509 C0            1 RES     
    2445 C0         116.8926   -97.1065   -62.6747 C0            1 RES     
    2446 C0         117.6049   -95.7991   -63.0351 C0            1 RES     
    2447 C0         117.8044   -94.8051   -61.8799 C0            1 RES     
    2448 C0         116.5370   -94.5945   -61.0262 C0            1 RES     
    2449 C0         116.6731   -93.3987   -60.0759 C0            1 RES     
    2450 C0         116.4282   -92.0782   -60.8227 C0            1 RES     
    2451 C0         116.6227   -90.8682   -59.9082 C0            1 RES     
    2452 C0         116.1592   -89.5885   -60.6110 C0            1 RES     
    2453 C0         116.5600   -88.2572   -59.9444 C0            1 RES     
    2454 C0         116.1132   -88.0051   -58.4905 C0            1 RES     
    2455 C0         117.0122   -88.6892   -57.4363 C0            1 RES     
    2456 C0         116.6369   -88.4034   -55.9686 C0            1 RES     
    2457 C0         117.1165   -87.0647   -55.3574 C0            1 RES     
    2458 C0         116.5212   -85.7571   -55.9003 C0            1 RES     
    2459 C0         114.9967   -85.7186   -55.8144 C0            1 RES     
    2460 H6         117.8005   -97.3941   -60.7436 H6            1 RES     
    2461 H6         118.5790   -98.3294   -62.0584 H6            1 RES     
    2462 H6         116.8066   -97.6638   -63.6061 H6            1 RES     
    2463 H6         115.8773   -96.8457   -62.3231 H6            1 RES     
    2464 H6         118.5878   -96.0079   -63.5103 H6            1 RES     
    2465 H6         116.9632   -95.3009   -63.7961 H6            1 RES     
    2466 H6         118.6192   -95.1523   -61.2081 H6            1 RES     
    2467 H6         118.1392   -93.8561   -62.3471 H6            1 RES     
    2468 H6         115.6309   -94.4543   -61.6555 H6            1 RES     
    2469 H6         116.3906   -95.5128   -60.4180 H6            1 RES     
    2470 H6         117.6654   -93.4233   -59.5734 H6            1 RES     
    2471 H6         115.8875   -93.4776   -59.2926 H6            1 RES     
    2472 H6         117.1124   -91.9708   -61.6898 H6            1 RES     
    2473 H6         115.3810   -92.0933   -61.2009 H6            1 RES     
    2474 H6         116.0035   -91.0117   -58.9996 H6            1 RES     
    2475 H6         117.7008   -90.8028   -59.6438 H6            1 RES     
    2476 H6         116.5982   -89.5584   -61.6329 H6            1 RES     
    2477 H6         115.0524   -89.6351   -60.7203 H6            1 RES     
    2478 H6         117.6583   -88.1031   -60.0168 H6            1 RES     
    2479 H6         116.0801   -87.4748   -60.5740 H6            1 RES     
    2480 H6         115.0427   -88.2747   -58.3605 H6            1 RES     
    2481 H6         116.1998   -86.9203   -58.3555 H6            1 RES     
    2482 H6         116.9133   -89.7775   -57.5518 H6            1 RES     
    2483 H6         118.0824   -88.4357   -57.5972 H6            1 RES     
    2484 H6         117.1635   -89.1783   -55.3672 H6            1 RES     
    2485 H6         115.5499   -88.5653   -55.8100 H6            1 RES     
    2486 H6         116.8745   -87.1067   -54.2725 H6            1 RES     
    2487 H6         118.2234   -87.0061   -55.4462 H6            1 RES     
    2488 H6         116.9262   -84.9212   -55.2899 H6            1 RES     
    2489 H6         116.8602   -85.5642   -56.9327 H6            1 RES     
    2490 H6         114.6679   -85.8579   -54.7628 H6            1 RES     
    2491 H6         114.6314   -84.7345   -56.1755 H6            1 RES     
    2492 H6         114.5434   -86.5091   -56.4465 H6            1 RES     
    2493 C0         116.5017  -100.2953   -62.3660 C0            1 RES     
    2494 C0         115.2561  -100.0369   -63.2488 C0            1 RES     
    2495 C0         115.0647  -100.9269   -64.4961 C0            1 RES     
    2496 C0         115.9286  -100.6124   -65.7425 C0            1 RES     
    2497 C0         115.8904   -99.1197   -66.1311 C0            1 RES     
    2498 C0         116.3779   -98.7969   -67.5510 C0            1 RES     
    2499 C0         115.2883   -99.0758   -68.5992 C0            1 RES     
    2500 C0         115.7391   -98.6648   -70.0087 C0            1 RES     
    2501 C0         114.5726   -98.7769   -70.9991 C0            1 RES     
    2502 C0         114.9194   -98.6631   -72.4994 C0            1 RES     
    2503 C0         115.5216   -97.3441   -73.0289 C0            1 RES     
    2504 C0         117.0307   -97.1809   -72.7550 C0            1 RES     
    2505 C0         117.6725   -95.9151   -73.3620 C0            1 RES     
    2506 C0         118.0593   -95.9572   -74.8616 C0            1 RES     
    2507 C0         116.9379   -96.0292   -75.9093 C0            1 RES     
    2508 C0         115.9407   -94.8782   -75.7919 C0            1 RES     
    2509 H6         117.4238  -100.3577   -62.9835 H6            1 RES     
    2510 H6         116.3367  -101.3050   -61.9273 H6            1 RES     
    2511 H6         114.3824  -100.2525   -62.5995 H6            1 RES     
    2512 H6         115.1682   -98.9916   -63.5735 H6            1 RES     
    2513 H6         115.1510  -102.0013   -64.2266 H6            1 RES     
    2514 H6         114.0143  -100.7556   -64.8225 H6            1 RES     
    2515 H6         116.9866  -100.9194   -65.5945 H6            1 RES     
    2516 H6         115.5087  -101.2269   -66.5669 H6            1 RES     
    2517 H6         114.8713   -98.6908   -66.0090 H6            1 RES     
    2518 H6         116.5705   -98.6085   -65.4370 H6            1 RES     
    2519 H6         117.3284   -99.3301   -67.7723 H6            1 RES     
    2520 H6         116.5783   -97.7041   -67.5910 H6            1 RES     
    2521 H6         115.0091  -100.1503   -68.5982 H6            1 RES     
    2522 H6         114.3902   -98.4756   -68.3276 H6            1 RES     
    2523 H6         116.0671   -97.6082   -69.9686 H6            1 RES     
    2524 H6         116.5798   -99.3215   -70.3192 H6            1 RES     
    2525 H6         114.1116   -99.7817   -70.8755 H6            1 RES     
    2526 H6         113.8030   -98.0177   -70.7343 H6            1 RES     
    2527 H6         115.5653   -99.5119   -72.8115 H6            1 RES     
    2528 H6         113.9430   -98.7899   -73.0190 H6            1 RES     
    2529 H6         114.9411   -96.4730   -72.6549 H6            1 RES     
    2530 H6         115.3796   -97.3904   -74.1159 H6            1 RES     
    2531 H6         117.1686   -97.0866   -71.6687 H6            1 RES     
    2532 H6         117.5991   -98.0753   -73.0901 H6            1 RES     
    2533 H6         118.6466   -95.7927   -72.8373 H6            1 RES     
    2534 H6         117.0669   -95.0171   -73.1168 H6            1 RES     
    2535 H6         118.6347   -95.0275   -75.0678 H6            1 RES     
    2536 H6         118.7480   -96.8139   -75.0298 H6            1 RES     
    2537 H6         117.4100   -95.9779   -76.9147 H6            1 RES     
    2538 H6         116.4184   -97.0024   -75.8722 H6            1 RES     
    2539 H6         116.4656   -93.9040   -75.8877 H6            1 RES     
    2540 H6         115.1875   -94.9579   -76.6036 H6            1 RES     
    2541 H6         115.4083   -94.9131   -74.8196 H6            1 RES     
    2542 C0         126.5751  -106.1579   -56.7814 C0            1 RES     
    2543 C1         125.2195  -105.5249   -56.4047 C1            1 RES     
    2544 C1         124.6269  -106.0477   -55.1564 C1            1 RES     
    2545 S2         122.8466  -106.0236   -55.4167 S2            1 RES     
    2546 C1         123.2070  -104.5515   -56.4001 C1            1 RES     
    2547 C1         124.4633  -104.5933   -56.9753 C1            1 RES     
    2548 C1         125.3998  -107.2731   -55.0180 C1            1 RES     
    2549 C1         126.4807  -107.3608   -55.8468 C1            1 RES     
    2550 C1         127.2442  -108.5204   -55.6217 C1            1 RES     
    2551 C1         126.7212  -109.2877   -54.5533 C1            1 RES     
    2552 S2         125.3422  -108.5191   -53.9270 S2            1 RES     
    2553 H3         124.7089  -104.0184   -57.8531 H3            1 RES     
    2554 H3         128.1316  -108.7812   -56.1849 H3            1 RES     
    2555 N4         128.0416  -111.3476   -54.8360 N4            1 RES     
    2556 C1         128.5059  -112.5737   -54.4519 C1            1 RES     
    2557 C1         128.1933  -113.0971   -53.1914 C1            1 RES     
    2558 C1         127.4017  -112.3375   -52.3393 C1            1 RES     
    2559 N4         127.0525  -112.7322   -51.0904 N4            1 RES     
    2560 S2         126.1447  -111.4582   -50.5608 S2            1 RES     
    2561 N4         126.1524  -110.4139   -51.8408 N4            1 RES     
    2562 C1         126.9098  -111.0714   -52.7582 C1            1 RES     
    2563 C1         127.2417  -110.5783   -54.0385 C1            1 RES     
    2564 H5         129.1179  -113.1525   -55.1316 H5            1 RES     
    2565 C0         127.7519  -105.2438   -56.3085 C0            1 RES     
    2566 C0         127.8117  -103.8943   -57.0310 C0            1 RES     
    2567 C0         128.8486  -102.8935   -56.5114 C0            1 RES     
    2568 C0         128.6606  -102.4285   -55.0586 C0            1 RES     
    2569 C0         127.2080  -102.0311   -54.7248 C0            1 RES     
    2570 C0         127.1030  -101.3045   -53.3785 C0            1 RES     
    2571 C0         127.5073   -99.8289   -53.5225 C0            1 RES     
    2572 C0         127.4722   -99.1005   -52.1784 C0            1 RES     
    2573 C0         127.6603   -97.5941   -52.3831 C0            1 RES     
    2574 C0         127.9441   -96.7609   -51.1172 C0            1 RES     
    2575 C0         126.9153   -96.8032   -49.9696 C0            1 RES     
    2576 C0         127.0481   -98.0459   -49.0611 C0            1 RES     
    2577 C0         126.0806   -98.0886   -47.8615 C0            1 RES     
    2578 C0         126.4598   -97.2613   -46.6096 C0            1 RES     
    2579 C0         126.4641   -95.7292   -46.7181 C0            1 RES     
    2580 C0         125.1247   -95.1640   -47.1870 C0            1 RES     
    2581 H6         127.6100  -105.0483   -55.2244 H6            1 RES     
    2582 H6         128.7234  -105.7714   -56.4274 H6            1 RES     
    2583 H6         128.0749  -104.0808   -58.0709 H6            1 RES     
    2584 H6         126.8248  -103.3968   -56.9993 H6            1 RES     
    2585 H6         129.8770  -103.2968   -56.6351 H6            1 RES     
    2586 H6         128.7597  -101.9952   -57.1628 H6            1 RES     
    2587 H6         128.9697  -103.2304   -54.3534 H6            1 RES     
    2588 H6         129.3555  -101.5750   -54.9180 H6            1 RES     
    2589 H6         126.7601  -101.3913   -55.5164 H6            1 RES     
    2590 H6         126.6131  -102.9678   -54.6668 H6            1 RES     
    2591 H6         127.7078  -101.8364   -52.6110 H6            1 RES     
    2592 H6         126.0403  -101.3179   -53.0508 H6            1 RES     
    2593 H6         128.5287   -99.7286   -53.9445 H6            1 RES     
    2594 H6         126.7883   -99.3487   -54.2240 H6            1 RES     
    2595 H6         126.4795   -99.2687   -51.7138 H6            1 RES     
    2596 H6         128.2819   -99.5141   -51.5383 H6            1 RES     
    2597 H6         128.5307   -97.4270   -53.0557 H6            1 RES     
    2598 H6         126.7556   -97.1991   -52.8973 H6            1 RES     
    2599 H6         128.9493   -97.0044   -50.7106 H6            1 RES     
    2600 H6         127.9864   -95.7093   -51.4795 H6            1 RES     
    2601 H6         125.8839   -96.6887   -50.3677 H6            1 RES     
    2602 H6         127.1361   -95.9164   -49.3634 H6            1 RES     
    2603 H6         126.8068   -98.9370   -49.6571 H6            1 RES     
    2604 H6         128.0911   -98.1653   -48.6955 H6            1 RES     
    2605 H6         126.0933   -99.1423   -47.5024 H6            1 RES     
    2606 H6         125.0423   -97.8814   -48.1961 H6            1 RES     
    2607 H6         125.7257   -97.5294   -45.8180 H6            1 RES     
    2608 H6         127.4617   -97.5875   -46.2541 H6            1 RES     
    2609 H6         126.6818   -95.3185   -45.7085 H6            1 RES     
    2610 H6         127.2855   -95.3786   -47.3664 H6            1 RES     
    2611 H6         124.3133   -95.4765   -46.4963 H6            1 RES     
    2612 H6         125.1761   -94.0551   -47.1992 H6            1 RES     
    2613 H6         124.8848   -95.5106   -48.2127 H6            1 RES     
    2614 C0         126.7086  -106.6588   -58.2788 C0            1 RES     
    2615 C0         126.1141  -105.7160   -59.3537 C0            1 RES     
    2616 C0         126.3733  -106.0649   -60.8354 C0            1 RES     
    2617 C0         127.7703  -105.7356   -61.4174 C0            1 RES     
    2618 C0         128.2140  -104.2889   -61.1159 C0            1 RES     
    2619 C0         129.3732  -103.7637   -61.9752 C0            1 RES     
    2620 C0         128.8868  -103.3037   -63.3593 C0            1 RES     
    2621 C0         130.0268  -102.6903   -64.1857 C0            1 RES     
    2622 C0         129.4794  -102.0719   -65.4789 C0            1 RES     
    2623 C0         130.5158  -101.6562   -66.5452 C0            1 RES     
    2624 C0         131.5415  -100.5553   -66.2009 C0            1 RES     
    2625 C0         132.7348  -101.0427   -65.3538 C0            1 RES     
    2626 C0         133.8211   -99.9804   -65.0818 C0            1 RES     
    2627 C0         134.8611   -99.7173   -66.1994 C0            1 RES     
    2628 C0         134.3875   -99.0630   -67.5064 C0            1 RES     
    2629 C0         133.7014   -97.7170   -67.2821 C0            1 RES     
    2630 H6         127.7814  -106.8687   -58.4799 H6            1 RES     
    2631 H6         126.1610  -107.6195   -58.4069 H6            1 RES     
    2632 H6         125.0135  -105.7785   -59.2272 H6            1 RES     
    2633 H6         126.3976  -104.6651   -59.2084 H6            1 RES     
    2634 H6         126.1092  -107.1247   -61.0393 H6            1 RES     
    2635 H6         125.6631  -105.4341   -61.4157 H6            1 RES     
    2636 H6         128.5460  -106.4365   -61.0397 H6            1 RES     
    2637 H6         127.6852  -105.8823   -62.5149 H6            1 RES     
    2638 H6         127.3662  -103.5740   -61.2037 H6            1 RES     
    2639 H6         128.5641  -104.2900   -60.0752 H6            1 RES     
    2640 H6         130.1892  -104.5165   -62.0390 H6            1 RES     
    2641 H6         129.7767  -102.8600   -61.4689 H6            1 RES     
    2642 H6         128.4380  -104.1510   -63.9189 H6            1 RES     
    2643 H6         128.1046  -102.5257   -63.2061 H6            1 RES     
    2644 H6         130.4942  -101.8886   -63.5820 H6            1 RES     
    2645 H6         130.7674  -103.4858   -64.4161 H6            1 RES     
    2646 H6         128.8299  -102.8274   -65.9736 H6            1 RES     
    2647 H6         128.8414  -101.1983   -65.2166 H6            1 RES     
    2648 H6         131.0530  -102.5499   -66.9299 H6            1 RES     
    2649 H6         129.9033  -101.2589   -67.3856 H6            1 RES     
    2650 H6         131.0351   -99.6841   -65.7315 H6            1 RES     
    2651 H6         131.9305  -100.2243   -67.1719 H6            1 RES     
    2652 H6         132.3519  -101.3296   -64.3643 H6            1 RES     
    2653 H6         133.2077  -101.9415   -65.8052 H6            1 RES     
    2654 H6         134.4283  -100.3823   -64.2398 H6            1 RES     
    2655 H6         133.3600   -99.0383   -64.7167 H6            1 RES     
    2656 H6         135.6335   -99.0455   -65.7634 H6            1 RES     
    2657 H6         135.3646  -100.6758   -66.4528 H6            1 RES     
    2658 H6         135.2825   -98.8941   -68.1442 H6            1 RES     
    2659 H6         133.7355   -99.7438   -68.0806 H6            1 RES     
    2660 H6         134.3864   -97.0200   -66.7541 H6            1 RES     
    2661 H6         133.4288   -97.2734   -68.2627 H6            1 RES     
    2662 H6         132.7738   -97.8396   -66.6867 H6            1 RES     
    2663 C0         131.5251  -117.1583   -52.4828 C0            1 RES     
    2664 C1         130.3071  -116.2152   -52.3958 C1            1 RES     
    2665 C1         129.1010  -116.8282   -51.8021 C1            1 RES     
    2666 S2         127.7053  -116.0803   -52.6569 S2            1 RES     
    2667 C1         128.7708  -114.6222   -52.7110 C1            1 RES     
    2668 C1         130.1136  -114.9483   -52.7463 C1            1 RES     
    2669 C1         129.4584  -118.2333   -51.9283 C1            1 RES     
    2670 C1         130.7632  -118.4614   -52.2571 C1            1 RES     
    2671 C1         131.0838  -119.8306   -52.2869 C1            1 RES     
    2672 C1         129.9757  -120.6318   -51.9211 C1            1 RES     
    2673 S2         128.6449  -119.6340   -51.5782 S2            1 RES     
    2674 H3         130.8555  -114.2719   -53.1378 H3            1 RES     
    2675 H3         132.0623  -120.2190   -52.5405 H3            1 RES     
    2676 N4         130.8408  -122.8500   -52.5522 N4            1 RES     
    2677 C1         130.8161  -124.2155   -52.5880 C1            1 RES     
    2678 C1         129.8439  -124.9347   -51.8824 C1            1 RES     
    2679 C1         128.9064  -124.2257   -51.1420 C1            1 RES     
    2680 N4         127.9334  -124.8145   -50.4044 N4            1 RES     
    2681 S2         127.1507  -123.5138   -49.7539 S2            1 RES     
    2682 N4         127.9725  -122.2174   -50.3647 N4            1 RES     
    2683 C1         128.9318  -122.8045   -51.1280 C1            1 RES     
    2684 C1         129.9242  -122.1133   -51.8559 C1            1 RES     
    2685 H5         131.5526  -124.7500   -53.1741 H5            1 RES     
    2686 C0         132.4847  -116.9198   -51.2719 C0            1 RES     
    2687 C0         133.1441  -115.5370   -51.2722 C0            1 RES     
    2688 C0         133.9785  -115.1846   -50.0368 C0            1 RES     
    2689 C0         133.2135  -115.1330   -48.7048 C0            1 RES     
    2690 C0         131.8871  -114.3500   -48.7892 C0            1 RES     
    2691 C0         131.2950  -114.0663   -47.4034 C0            1 RES     
    2692 C0         131.9973  -112.8682   -46.7454 C0            1 RES     
    2693 C0         131.4665  -112.6078   -45.3351 C0            1 RES     
    2694 C0         132.0187  -111.2858   -44.7931 C0            1 RES     
    2695 C0         131.8187  -111.0262   -43.2866 C0            1 RES     
    2696 C0         130.3807  -111.0257   -42.7304 C0            1 RES     
    2697 C0         129.8182  -112.4393   -42.4604 C0            1 RES     
    2698 C0         128.4078  -112.4769   -41.8390 C0            1 RES     
    2699 C0         128.2949  -112.2532   -40.3117 C0            1 RES     
    2700 C0         128.6487  -110.8698   -39.7462 C0            1 RES     
    2701 C0         127.8358  -109.7436   -40.3818 C0            1 RES     
    2702 H6         131.8830  -117.0144   -50.3432 H6            1 RES     
    2703 H6         133.2709  -117.7054   -51.2409 H6            1 RES     
    2704 H6         133.8304  -115.4917   -52.1163 H6            1 RES     
    2705 H6         132.3805  -114.7467   -51.3938 H6            1 RES     
    2706 H6         134.8400  -115.8798   -49.9359 H6            1 RES     
    2707 H6         134.3888  -114.1670   -50.2250 H6            1 RES     
    2708 H6         132.9850  -116.1617   -48.3506 H6            1 RES     
    2709 H6         133.9075  -114.6743   -47.9707 H6            1 RES     
    2710 H6         132.0066  -113.3883   -49.3347 H6            1 RES     
    2711 H6         131.1676  -114.9772   -49.3579 H6            1 RES     
    2712 H6         131.3426  -114.9828   -46.7745 H6            1 RES     
    2713 H6         130.2255  -113.7867   -47.5257 H6            1 RES     
    2714 H6         133.0934  -113.0283   -46.6790 H6            1 RES     
    2715 H6         131.8104  -111.9751   -47.3834 H6            1 RES     
    2716 H6         130.3614  -112.5308   -45.3847 H6            1 RES     
    2717 H6         131.7734  -113.4572   -44.6864 H6            1 RES     
    2718 H6         133.1182  -111.2579   -44.9607 H6            1 RES     
    2719 H6         131.5665  -110.4552   -45.3803 H6            1 RES     
    2720 H6         132.4378  -111.7279   -42.6871 H6            1 RES     
    2721 H6         132.2328  -110.0061   -43.1222 H6            1 RES     
    2722 H6         129.7099  -110.4309   -43.3874 H6            1 RES     
    2723 H6         130.4526  -110.5017   -41.7698 H6            1 RES     
    2724 H6         129.7230  -112.9628   -43.4218 H6            1 RES     
    2725 H6         130.5134  -113.0332   -41.8281 H6            1 RES     
    2726 H6         128.0418  -113.5179   -41.9868 H6            1 RES     
    2727 H6         127.7187  -111.8165   -42.4064 H6            1 RES     
    2728 H6         127.2356  -112.4551   -40.0390 H6            1 RES     
    2729 H6         128.9196  -113.0118   -39.7910 H6            1 RES     
    2730 H6         128.4325  -110.8837   -38.6561 H6            1 RES     
    2731 H6         129.7305  -110.6691   -39.8333 H6            1 RES     
    2732 H6         126.7497  -109.9267   -40.2397 H6            1 RES     
    2733 H6         128.1015  -108.7793   -39.9001 H6            1 RES     
    2734 H6         128.0533  -109.6601   -41.4661 H6            1 RES     
    2735 C0         132.2578  -117.2086   -53.8869 C0            1 RES     
    2736 C0         132.4460  -115.8424   -54.5910 C0            1 RES     
    2737 C0         133.3085  -115.8090   -55.8714 C0            1 RES     
    2738 C0         134.8473  -115.8568   -55.7026 C0            1 RES     
    2739 C0         135.3648  -114.8298   -54.6740 C0            1 RES     
    2740 C0         136.8706  -114.5362   -54.7379 C0            1 RES     
    2741 C0         137.2053  -113.5448   -55.8645 C0            1 RES     
    2742 C0         138.6962  -113.1760   -55.8706 C0            1 RES     
    2743 C0         138.9660  -112.0492   -56.8766 C0            1 RES     
    2744 C0         140.4444  -111.7465   -57.2034 C0            1 RES     
    2745 C0         141.3725  -111.2500   -56.0744 C0            1 RES     
    2746 C0         141.8947  -112.3655   -55.1459 C0            1 RES     
    2747 C0         142.9019  -111.9039   -54.0711 C0            1 RES     
    2748 C0         144.3781  -111.7221   -54.5041 C0            1 RES     
    2749 C0         144.7247  -110.5866   -55.4793 C0            1 RES     
    2750 C0         144.2918  -109.2134   -54.9697 C0            1 RES     
    2751 H6         133.2319  -117.7264   -53.7513 H6            1 RES     
    2752 H6         131.6630  -117.8195   -54.6026 H6            1 RES     
    2753 H6         131.4308  -115.5331   -54.9147 H6            1 RES     
    2754 H6         132.8239  -115.0605   -53.9189 H6            1 RES     
    2755 H6         132.9735  -116.5886   -56.5887 H6            1 RES     
    2756 H6         133.1004  -114.8217   -56.3416 H6            1 RES     
    2757 H6         135.1946  -116.8702   -55.4061 H6            1 RES     
    2758 H6         135.2706  -115.6322   -56.7046 H6            1 RES     
    2759 H6         134.8199  -113.8630   -54.7510 H6            1 RES     
    2760 H6         135.1669  -115.2650   -53.6855 H6            1 RES     
    2761 H6         137.4535  -115.4802   -54.8141 H6            1 RES     
    2762 H6         137.1501  -114.0343   -53.7861 H6            1 RES     
    2763 H6         136.9236  -113.9646   -56.8529 H6            1 RES     
    2764 H6         136.6137  -112.6172   -55.6912 H6            1 RES     
    2765 H6         138.9640  -112.8163   -54.8584 H6            1 RES     
    2766 H6         139.2859  -114.0811   -56.1304 H6            1 RES     
    2767 H6         138.4992  -112.3338   -57.8454 H6            1 RES     
    2768 H6         138.4643  -111.1220   -56.5197 H6            1 RES     
    2769 H6         140.9145  -112.6186   -57.7070 H6            1 RES     
    2770 H6         140.3989  -110.9246   -57.9528 H6            1 RES     
    2771 H6         140.8840  -110.4339   -55.4990 H6            1 RES     
    2772 H6         142.2344  -110.8138   -56.5947 H6            1 RES     
    2773 H6         141.0379  -112.7704   -54.5892 H6            1 RES     
    2774 H6         142.3406  -113.1990   -55.7304 H6            1 RES     
    2775 H6         142.9411  -112.7284   -53.3243 H6            1 RES     
    2776 H6         142.5157  -111.0110   -53.5354 H6            1 RES     
    2777 H6         144.9619  -111.5392   -53.5749 H6            1 RES     
    2778 H6         144.7439  -112.6779   -54.9391 H6            1 RES     
    2779 H6         145.8291  -110.5764   -55.6084 H6            1 RES     
    2780 H6         144.3083  -110.7808   -56.4829 H6            1 RES     
    2781 H6         144.7617  -109.0033   -53.9855 H6            1 RES     
    2782 H6         144.6135  -108.4334   -55.6914 H6            1 RES     
    2783 H6         143.1888  -109.1583   -54.8679 H6            1 RES     
    2784 C0         131.5682  -129.9465   -51.8129 C0            1 RES     
    2785 C1         130.6670  -128.6946   -51.7830 C1            1 RES     
    2786 C1         129.2308  -128.9704   -51.9934 C1            1 RES     
    2787 S2         128.5897  -127.5487   -52.8910 S2            1 RES     
    2788 C1         129.8119  -126.6339   -51.9249 C1            1 RES     
    2789 C1         130.9155  -127.4018   -51.6032 C1            1 RES     
    2790 C1         129.3238  -130.3047   -52.5670 C1            1 RES     
    2791 C1         130.5541  -130.8857   -52.4602 C1            1 RES     
    2792 C1         130.5764  -132.2032   -52.9521 C1            1 RES     
    2793 C1         129.2965  -132.6141   -53.3956 C1            1 RES     
    2794 S2         128.1870  -131.3479   -53.1718 S2            1 RES     
    2795 H3         131.8697  -126.9599   -51.3677 H3            1 RES     
    2796 H3         131.4601  -132.8289   -52.9705 H3            1 RES     
    2797 N4         129.9074  -134.7032   -54.5486 N4            1 RES     
    2798 C1         129.6376  -135.8897   -55.1699 C1            1 RES     
    2799 C1         128.3276  -136.3777   -55.2477 C1            1 RES     
    2800 C1         127.3086  -135.6272   -54.6746 C1            1 RES     
    2801 N4         126.0080  -136.0092   -54.6706 N4            1 RES     
    2802 S2         125.2798  -134.7662   -53.8629 S2            1 RES     
    2803 N4         126.5281  -133.7414   -53.5153 N4            1 RES     
    2804 C1         127.6003  -134.3854   -54.0474 C1            1 RES     
    2805 C1         128.9328  -133.9229   -53.9926 C1            1 RES     
    2806 H5         130.4445  -136.4580   -55.6142 H5            1 RES     
    2807 C0         131.8576  -130.4427   -50.3589 C0            1 RES     
    2808 C0         132.6916  -129.4620   -49.5285 C0            1 RES     
    2809 C0         132.8843  -129.8191   -48.0514 C0            1 RES     
    2810 C0         131.6022  -129.8864   -47.2063 C0            1 RES     
    2811 C0         130.6590  -128.6858   -47.4261 C0            1 RES     
    2812 C0         129.5446  -128.6270   -46.3744 C0            1 RES     
    2813 C0         130.0647  -128.0190   -45.0623 C0            1 RES     
    2814 C0         128.9865  -128.0104   -43.9780 C0            1 RES     
    2815 C0         129.4576  -127.2039   -42.7639 C0            1 RES     
    2816 C0         128.6166  -127.3452   -41.4794 C0            1 RES     
    2817 C0         127.1192  -126.9836   -41.5438 C0            1 RES     
    2818 C0         126.2332  -128.1062   -42.1288 C0            1 RES     
    2819 C0         124.7208  -127.8074   -42.1454 C0            1 RES     
    2820 C0         123.9375  -128.0183   -40.8272 C0            1 RES     
    2821 C0         124.2395  -127.0921   -39.6399 C0            1 RES     
    2822 C0         124.0663  -125.6135   -39.9820 C0            1 RES     
    2823 H6         130.8798  -130.5800   -49.8504 H6            1 RES     
    2824 H6         132.3632  -131.4327   -50.3816 H6            1 RES     
    2825 H6         133.6918  -129.4240   -49.9572 H6            1 RES     
    2826 H6         132.2497  -128.4494   -49.5706 H6            1 RES     
    2827 H6         133.4384  -130.7773   -47.9501 H6            1 RES     
    2828 H6         133.5236  -129.0147   -47.6231 H6            1 RES     
    2829 H6         131.0370  -130.8158   -47.4355 H6            1 RES     
    2830 H6         131.9350  -129.9507   -46.1498 H6            1 RES     
    2831 H6         131.2093  -127.7195   -47.4235 H6            1 RES     
    2832 H6         130.1925  -128.8096   -48.4269 H6            1 RES     
    2833 H6         129.1062  -129.6390   -46.2277 H6            1 RES     
    2834 H6         128.7415  -127.9536   -46.7466 H6            1 RES     
    2835 H6         130.9406  -128.5801   -44.6757 H6            1 RES     
    2836 H6         130.3835  -126.9741   -45.2774 H6            1 RES     
    2837 H6         128.0787  -127.5243   -44.3894 H6            1 RES     
    2838 H6         128.7739  -129.0636   -43.6916 H6            1 RES     
    2839 H6         130.4849  -127.5314   -42.4894 H6            1 RES     
    2840 H6         129.5128  -126.1324   -43.0603 H6            1 RES     
    2841 H6         128.7237  -128.3675   -41.0568 H6            1 RES     
    2842 H6         129.0913  -126.6439   -40.7570 H6            1 RES     
    2843 H6         126.9746  -126.0199   -42.0785 H6            1 RES     
    2844 H6         126.8235  -126.8297   -40.4990 H6            1 RES     
    2845 H6         126.5094  -128.2507   -43.1825 H6            1 RES     
    2846 H6         126.4107  -129.0706   -41.6053 H6            1 RES     
    2847 H6         124.2754  -128.5497   -42.8454 H6            1 RES     
    2848 H6         124.5305  -126.8055   -42.5845 H6            1 RES     
    2849 H6         122.8605  -127.8902   -41.0743 H6            1 RES     
    2850 H6         124.0759  -129.0696   -40.4921 H6            1 RES     
    2851 H6         123.5304  -127.3464   -38.8227 H6            1 RES     
    2852 H6         125.2466  -127.2841   -39.2316 H6            1 RES     
    2853 H6         123.0326  -125.4206   -40.3389 H6            1 RES     
    2854 H6         124.2513  -125.0007   -39.0750 H6            1 RES     
    2855 H6         124.7872  -125.3000   -40.7642 H6            1 RES     
    2856 C0         132.8572  -129.8450   -52.7289 C0            1 RES     
    2857 C0         133.6210  -128.4998   -52.6599 C0            1 RES     
    2858 C0         134.9783  -128.4082   -53.3904 C0            1 RES     
    2859 C0         136.2063  -129.0619   -52.7095 C0            1 RES     
    2860 C0         136.3576  -128.6466   -51.2313 C0            1 RES     
    2861 C0         137.7350  -128.9182   -50.6094 C0            1 RES     
    2862 C0         138.7533  -127.8331   -50.9965 C0            1 RES     
    2863 C0         140.1049  -128.0499   -50.3001 C0            1 RES     
    2864 C0         141.0362  -126.8570   -50.5532 C0            1 RES     
    2865 C0         142.5176  -127.0332   -50.1550 C0            1 RES     
    2866 C0         142.8694  -127.2659   -48.6702 C0            1 RES     
    2867 C0         142.6555  -128.7150   -48.1873 C0            1 RES     
    2868 C0         143.0941  -128.9915   -46.7333 C0            1 RES     
    2869 C0         144.6009  -129.2424   -46.4754 C0            1 RES     
    2870 C0         145.5850  -128.0789   -46.6713 C0            1 RES     
    2871 C0         145.2380  -126.8581   -45.8217 C0            1 RES     
    2872 H6         133.5259  -130.6979   -52.4822 H6            1 RES     
    2873 H6         132.5711  -129.9567   -53.7989 H6            1 RES     
    2874 H6         132.9664  -127.7607   -53.1663 H6            1 RES     
    2875 H6         133.7755  -128.1451   -51.6322 H6            1 RES     
    2876 H6         134.8826  -128.7633   -54.4389 H6            1 RES     
    2877 H6         135.2171  -127.3219   -53.4342 H6            1 RES     
    2878 H6         136.1647  -130.1711   -52.7699 H6            1 RES     
    2879 H6         137.0916  -128.7231   -53.2883 H6            1 RES     
    2880 H6         136.1159  -127.5712   -51.0814 H6            1 RES     
    2881 H6         135.6309  -129.2498   -50.6712 H6            1 RES     
    2882 H6         138.0869  -129.9423   -50.8625 H6            1 RES     
    2883 H6         137.6170  -128.8572   -49.5056 H6            1 RES     
    2884 H6         138.9028  -127.8101   -52.0963 H6            1 RES     
    2885 H6         138.3442  -126.8489   -50.6732 H6            1 RES     
    2886 H6         139.9203  -128.1280   -49.2112 H6            1 RES     
    2887 H6         140.5579  -128.9881   -50.6860 H6            1 RES     
    2888 H6         141.0442  -126.6527   -51.6467 H6            1 RES     
    2889 H6         140.6164  -125.9600   -50.0454 H6            1 RES     
    2890 H6         142.9912  -127.8268   -50.7723 H6            1 RES     
    2891 H6         142.9969  -126.0700   -50.4410 H6            1 RES     
    2892 H6         142.3347  -126.5361   -48.0241 H6            1 RES     
    2893 H6         143.9412  -127.0421   -48.6001 H6            1 RES     
    2894 H6         141.5767  -128.9238   -48.2120 H6            1 RES     
    2895 H6         143.1547  -129.4420   -48.8638 H6            1 RES     
    2896 H6         142.6102  -129.9539   -46.4528 H6            1 RES     
    2897 H6         142.6811  -128.2196   -46.0500 H6            1 RES     
    2898 H6         144.6923  -129.5675   -45.4153 H6            1 RES     
    2899 H6         144.9361  -130.0921   -47.1096 H6            1 RES     
    2900 H6         146.5946  -128.4351   -46.3707 H6            1 RES     
    2901 H6         145.6704  -127.8030   -47.7366 H6            1 RES     
    2902 H6         145.2108  -127.1338   -44.7461 H6            1 RES     
    2903 H6         146.0103  -126.0742   -45.9687 H6            1 RES     
    2904 H6         144.2553  -126.4368   -46.1165 H6            1 RES     
    2905 C0         128.7956  -141.4541   -56.6994 C0            1 RES     
    2906 C1         128.2531  -140.0282   -56.4693 C1            1 RES     
    2907 C1         127.0700  -139.6855   -57.2853 C1            1 RES     
    2908 S2         127.2268  -137.9316   -57.6554 S2            1 RES     
    2909 C1         127.9897  -137.8543   -56.0195 C1            1 RES     
    2910 C1         128.6316  -139.0300   -55.6782 C1            1 RES     
    2911 C1         127.1641  -140.7290   -58.2953 C1            1 RES     
    2912 C1         128.0537  -141.7228   -58.0058 C1            1 RES     
    2913 C1         128.0515  -142.7498   -58.9669 C1            1 RES     
    2914 C1         127.0874  -142.5148   -59.9763 C1            1 RES     
    2915 S2         126.2766  -141.0573   -59.6558 S2            1 RES     
    2916 H3         129.4223  -139.0575   -54.9466 H3            1 RES     
    2917 H3         128.6954  -143.6196   -58.9266 H3            1 RES     
    2918 N4         127.7551  -144.2435   -61.5988 N4            1 RES     
    2919 C1         127.5902  -145.0100   -62.7177 C1            1 RES     
    2920 C1         126.4104  -144.9399   -63.4684 C1            1 RES     
    2921 C1         125.4098  -144.0738   -63.0458 C1            1 RES     
    2922 N4         124.2196  -143.9375   -63.6801 N4            1 RES     
    2923 S2         123.4517  -142.8116   -62.7472 S2            1 RES     
    2924 N4         124.5541  -142.4645   -61.5667 N4            1 RES     
    2925 C1         125.6015  -143.2682   -61.8905 C1            1 RES     
    2926 C1         126.8066  -143.3622   -61.1615 C1            1 RES     
    2927 H5         128.3830  -145.6758   -63.0334 H5            1 RES     
    2928 C0         128.2517  -142.4260   -55.6023 C0            1 RES     
    2929 C0         128.7599  -142.1088   -54.1923 C0            1 RES     
    2930 C0         128.1492  -142.9294   -53.0520 C0            1 RES     
    2931 C0         126.6340  -142.7696   -52.8493 C0            1 RES     
    2932 C0         126.1650  -141.3002   -52.8632 C0            1 RES     
    2933 C0         124.7191  -141.1510   -52.3745 C0            1 RES     
    2934 C0         124.6557  -141.1902   -50.8396 C0            1 RES     
    2935 C0         123.2155  -141.1082   -50.3321 C0            1 RES     
    2936 C0         123.1955  -140.9254   -48.8113 C0            1 RES     
    2937 C0         121.8336  -141.1212   -48.1156 C0            1 RES     
    2938 C0         120.6523  -140.2363   -48.5611 C0            1 RES     
    2939 C0         119.9546  -140.7321   -49.8475 C0            1 RES     
    2940 C0         118.7254  -139.9112   -50.2857 C0            1 RES     
    2941 C0         117.3833  -140.1996   -49.5708 C0            1 RES     
    2942 C0         117.2546  -139.8413   -48.0829 C0            1 RES     
    2943 C0         117.5576  -138.3715   -47.7983 C0            1 RES     
    2944 H6         127.1444  -142.3401   -55.5969 H6            1 RES     
    2945 H6         128.5029  -143.4783   -55.8589 H6            1 RES     
    2946 H6         129.8288  -142.3142   -54.1658 H6            1 RES     
    2947 H6         128.5986  -141.0408   -53.9564 H6            1 RES     
    2948 H6         128.3889  -144.0079   -53.1749 H6            1 RES     
    2949 H6         128.6486  -142.5785   -52.1211 H6            1 RES     
    2950 H6         126.0786  -143.3166   -53.6418 H6            1 RES     
    2951 H6         126.4014  -143.2590   -51.8811 H6            1 RES     
    2952 H6         126.8231  -140.6484   -52.2479 H6            1 RES     
    2953 H6         126.2198  -140.9446   -53.9144 H6            1 RES     
    2954 H6         124.0766  -141.9280   -52.8449 H6            1 RES     
    2955 H6         124.3403  -140.1535   -52.6883 H6            1 RES     
    2956 H6         125.1118  -142.1193   -50.4394 H6            1 RES     
    2957 H6         125.2349  -140.3204   -50.4553 H6            1 RES     
    2958 H6         122.7293  -140.2264   -50.7964 H6            1 RES     
    2959 H6         122.6915  -142.0451   -50.6220 H6            1 RES     
    2960 H6         123.8804  -141.6704   -48.3490 H6            1 RES     
    2961 H6         123.5931  -139.9119   -48.5793 H6            1 RES     
    2962 H6         121.5243  -142.1877   -48.1631 H6            1 RES     
    2963 H6         122.0313  -140.8878   -47.0454 H6            1 RES     
    2964 H6         120.9716  -139.1750   -48.6452 H6            1 RES     
    2965 H6         119.9295  -140.3001   -47.7388 H6            1 RES     
    2966 H6         120.6668  -140.6504   -50.6803 H6            1 RES     
    2967 H6         119.6687  -141.8028   -49.7610 H6            1 RES     
    2968 H6         118.5341  -140.1981   -51.3443 H6            1 RES     
    2969 H6         118.9674  -138.8276   -50.2911 H6            1 RES     
    2970 H6         116.6040  -139.6205   -50.1136 H6            1 RES     
    2971 H6         117.1370  -141.2773   -49.6915 H6            1 RES     
    2972 H6         116.2070  -140.0477   -47.7739 H6            1 RES     
    2973 H6         117.8846  -140.4988   -47.4594 H6            1 RES     
    2974 H6         116.8804  -137.7187   -48.3886 H6            1 RES     
    2975 H6         117.4016  -138.1648   -46.7187 H6            1 RES     
    2976 H6         118.6100  -138.1275   -48.0487 H6            1 RES     
    2977 C0         130.3572  -141.5654   -56.9436 C0            1 RES     
    2978 C0         131.2403  -140.6764   -56.0338 C0            1 RES     
    2979 C0         132.7698  -140.8760   -56.1039 C0            1 RES     
    2980 C0         133.3688  -142.1021   -55.3712 C0            1 RES     
    2981 C0         132.8725  -142.2257   -53.9155 C0            1 RES     
    2982 C0         133.7020  -143.1515   -53.0141 C0            1 RES     
    2983 C0         134.9704  -142.4509   -52.4999 C0            1 RES     
    2984 C0         135.7529  -143.3408   -51.5228 C0            1 RES     
    2985 C0         136.9038  -142.5528   -50.8834 C0            1 RES     
    2986 C0         137.9478  -143.3664   -50.0885 C0            1 RES     
    2987 C0         137.4939  -144.1375   -48.8306 C0            1 RES     
    2988 C0         136.7978  -145.4815   -49.1274 C0            1 RES     
    2989 C0         136.4246  -146.3138   -47.8822 C0            1 RES     
    2990 C0         137.5429  -147.1615   -47.2259 C0            1 RES     
    2991 C0         138.7059  -146.4354   -46.5325 C0            1 RES     
    2992 C0         138.2401  -145.4806   -45.4351 C0            1 RES     
    2993 H6         130.6460  -142.6354   -56.8593 H6            1 RES     
    2994 H6         130.6020  -141.2445   -57.9811 H6            1 RES     
    2995 H6         131.0656  -139.6356   -56.3764 H6            1 RES     
    2996 H6         130.9504  -140.7221   -54.9756 H6            1 RES     
    2997 H6         133.1200  -140.8460   -57.1579 H6            1 RES     
    2998 H6         133.2068  -139.9908   -55.5894 H6            1 RES     
    2999 H6         133.1462  -143.0487   -55.9096 H6            1 RES     
    3000 H6         134.4697  -141.9556   -55.3825 H6            1 RES     
    3001 H6         132.8032  -141.2318   -53.4209 H6            1 RES     
    3002 H6         131.8649  -142.6580   -53.9747 H6            1 RES     
    3003 H6         133.9251  -144.1100   -53.5321 H6            1 RES     
    3004 H6         133.0852  -143.3795   -52.1178 H6            1 RES     
    3005 H6         135.6287  -142.1614   -53.3456 H6            1 RES     
    3006 H6         134.6571  -141.5275   -51.9617 H6            1 RES     
    3007 H6         135.0590  -143.6629   -50.7225 H6            1 RES     
    3008 H6         136.1428  -144.2212   -52.0772 H6            1 RES     
    3009 H6         137.4731  -142.0533   -51.6982 H6            1 RES     
    3010 H6         136.4760  -141.7567   -50.2337 H6            1 RES     
    3011 H6         138.4941  -144.0585   -50.7650 H6            1 RES     
    3012 H6         138.6826  -142.6065   -49.7392 H6            1 RES     
    3013 H6         136.8692  -143.4880   -48.1798 H6            1 RES     
    3014 H6         138.4220  -144.3518   -48.2860 H6            1 RES     
    3015 H6         135.8451  -145.2647   -49.6307 H6            1 RES     
    3016 H6         137.4073  -146.1066   -49.8153 H6            1 RES     
    3017 H6         135.6887  -147.0697   -48.2373 H6            1 RES     
    3018 H6         135.8944  -145.6825   -47.1381 H6            1 RES     
    3019 H6         137.0510  -147.7941   -46.4540 H6            1 RES     
    3020 H6         137.9678  -147.8475   -47.9909 H6            1 RES     
    3021 H6         139.3576  -147.2070   -46.0672 H6            1 RES     
    3022 H6         139.3420  -145.9092   -47.2651 H6            1 RES     
    3023 H6         137.6489  -146.0309   -44.6727 H6            1 RES     
    3024 H6         139.1245  -145.0270   -44.9404 H6            1 RES     
    3025 H6         137.6215  -144.6630   -45.8579 H6            1 RES     
    3026 C0         126.5171  -149.1668   -66.6649 C0            1 RES     
    3027 C1         126.2201  -147.7771   -66.0641 C1            1 RES     
    3028 C1         125.6636  -146.8024   -67.0248 C1            1 RES     
    3029 S2         126.3162  -145.2016   -66.5255 S2            1 RES     
    3030 C1         126.2026  -145.8934   -64.8604 C1            1 RES     
    3031 C1         126.3603  -147.2666   -64.8454 C1            1 RES     
    3032 C1         126.0240  -147.4610   -68.2716 C1            1 RES     
    3033 C1         126.4540  -148.7487   -68.1314 C1            1 RES     
    3034 C1         126.7117  -149.3720   -69.3656 C1            1 RES     
    3035 C1         126.4143  -148.5153   -70.4525 C1            1 RES     
    3036 S2         125.8503  -147.0264   -69.8613 S2            1 RES     
    3037 H3         126.6824  -147.7950   -63.9631 H3            1 RES     
    3038 H3         127.0746  -150.3871   -69.4685 H3            1 RES     
    3039 N4         127.4254  -149.8082   -72.2891 N4            1 RES     
    3040 C1         127.6699  -150.0956   -73.6022 C1            1 RES     
    3041 C1         127.0320  -149.3819   -74.6240 C1            1 RES     
    3042 C1         126.1416  -148.3761   -74.2699 C1            1 RES     
    3043 N4         125.4520  -147.6345   -75.1710 N4            1 RES     
    3044 S2         124.5674  -146.6345   -74.1989 S2            1 RES     
    3045 N4         125.0148  -147.0779   -72.6716 N4            1 RES     
    3046 C1         125.9102  -148.0747   -72.9002 C1            1 RES     
    3047 C1         126.5755  -148.8123   -71.8973 C1            1 RES     
    3048 H5         128.3702  -150.8801   -73.8581 H5            1 RES     
    3049 C0         125.3376  -150.1497   -66.3702 C0            1 RES     
    3050 C0         125.1605  -150.4702   -64.8827 C0            1 RES     
    3051 C0         123.9325  -151.3077   -64.5121 C0            1 RES     
    3052 C0         122.5691  -150.6731   -64.8291 C0            1 RES     
    3053 C0         122.4600  -149.2000   -64.3848 C0            1 RES     
    3054 C0         121.0170  -148.6843   -64.4444 C0            1 RES     
    3055 C0         120.2212  -149.1476   -63.2141 C0            1 RES     
    3056 C0         118.7611  -148.6988   -63.2848 C0            1 RES     
    3057 C0         118.0525  -148.9778   -61.9557 C0            1 RES     
    3058 C0         116.5154  -148.8584   -61.9606 C0            1 RES     
    3059 C0         115.8888  -147.5143   -62.3827 C0            1 RES     
    3060 C0         115.8098  -147.3188   -63.9134 C0            1 RES     
    3061 C0         115.1263  -146.0161   -64.3744 C0            1 RES     
    3062 C0         113.5789  -145.9913   -64.3956 C0            1 RES     
    3063 C0         112.8271  -146.0659   -63.0585 C0            1 RES     
    3064 C0         113.2366  -144.9622   -62.0852 C0            1 RES     
    3065 H6         124.4035  -149.6711   -66.7332 H6            1 RES     
    3066 H6         125.4706  -151.0952   -66.9399 H6            1 RES     
    3067 H6         126.0234  -151.0496   -64.5583 H6            1 RES     
    3068 H6         125.1175  -149.5374   -64.2906 H6            1 RES     
    3069 H6         123.9867  -152.3115   -64.9864 H6            1 RES     
    3070 H6         123.9836  -151.4541   -63.4098 H6            1 RES     
    3071 H6         122.3658  -150.7201   -65.9210 H6            1 RES     
    3072 H6         121.8117  -151.3054   -64.3216 H6            1 RES     
    3073 H6         122.8564  -149.0457   -63.3573 H6            1 RES     
    3074 H6         123.0788  -148.5965   -65.0829 H6            1 RES     
    3075 H6         120.5404  -148.9974   -65.3997 H6            1 RES     
    3076 H6         121.0368  -147.5726   -64.4167 H6            1 RES     
    3077 H6         120.2397  -150.2525   -63.1130 H6            1 RES     
    3078 H6         120.7030  -148.7040   -62.3137 H6            1 RES     
    3079 H6         118.7384  -147.6058   -63.4702 H6            1 RES     
    3080 H6         118.2686  -149.2496   -64.1157 H6            1 RES     
    3081 H6         118.2731  -150.0219   -61.6411 H6            1 RES     
    3082 H6         118.4794  -148.2961   -61.1862 H6            1 RES     
    3083 H6         116.0656  -149.6733   -62.5677 H6            1 RES     
    3084 H6         116.2184  -149.0394   -60.9032 H6            1 RES     
    3085 H6         116.4091  -146.6688   -61.8829 H6            1 RES     
    3086 H6         114.8643  -147.5489   -61.9933 H6            1 RES     
    3087 H6         116.8339  -147.2615   -64.3077 H6            1 RES     
    3088 H6         115.3152  -148.1855   -64.4030 H6            1 RES     
    3089 H6         115.4128  -145.8880   -65.4425 H6            1 RES     
    3090 H6         115.5471  -145.1457   -63.8281 H6            1 RES     
    3091 H6         113.2837  -145.0355   -64.8821 H6            1 RES     
    3092 H6         113.2159  -146.8176   -65.0452 H6            1 RES     
    3093 H6         111.7420  -145.9567   -63.2731 H6            1 RES     
    3094 H6         112.9406  -147.0602   -62.5931 H6            1 RES     
    3095 H6         113.0659  -143.9646   -62.5423 H6            1 RES     
    3096 H6         112.6272  -145.0405   -61.1606 H6            1 RES     
    3097 H6         114.3052  -145.0571   -61.8043 H6            1 RES     
    3098 C0         127.9498  -149.7633   -66.3446 C0            1 RES     
    3099 C0         128.4441  -149.5684   -64.8901 C0            1 RES     
    3100 C0         129.7488  -150.2824   -64.4750 C0            1 RES     
    3101 C0         129.6729  -151.7997   -64.1733 C0            1 RES     
    3102 C0         128.5278  -152.1562   -63.2026 C0            1 RES     
    3103 C0         128.6270  -153.5422   -62.5490 C0            1 RES     
    3104 C0         129.6039  -153.5379   -61.3616 C0            1 RES     
    3105 C0         129.6337  -154.8971   -60.6472 C0            1 RES     
    3106 C0         130.4671  -154.8095   -59.3619 C0            1 RES     
    3107 C0         130.8228  -156.1433   -58.6702 C0            1 RES     
    3108 C0         129.6827  -157.0289   -58.1240 C0            1 RES     
    3109 C0         128.9668  -157.8745   -59.1971 C0            1 RES     
    3110 C0         127.8897  -158.8399   -58.6580 C0            1 RES     
    3111 C0         128.3688  -160.1900   -58.0685 C0            1 RES     
    3112 C0         129.1747  -160.1775   -56.7605 C0            1 RES     
    3113 C0         128.4369  -159.4872   -55.6150 C0            1 RES     
    3114 H6         127.9484  -150.8386   -66.6260 H6            1 RES     
    3115 H6         128.7178  -149.2639   -66.9768 H6            1 RES     
    3116 H6         128.6609  -148.4845   -64.7932 H6            1 RES     
    3117 H6         127.6810  -149.8144   -64.1397 H6            1 RES     
    3118 H6         130.5585  -150.0735   -65.2066 H6            1 RES     
    3119 H6         130.0493  -149.8116   -63.5122 H6            1 RES     
    3120 H6         129.5552  -152.3960   -65.1040 H6            1 RES     
    3121 H6         130.6496  -152.0689   -63.7184 H6            1 RES     
    3122 H6         128.4254  -151.3987   -62.3945 H6            1 RES     
    3123 H6         127.6089  -152.1528   -63.8037 H6            1 RES     
    3124 H6         128.8792  -154.3176   -63.3052 H6            1 RES     
    3125 H6         127.6258  -153.7822   -62.1297 H6            1 RES     
    3126 H6         130.6284  -153.2735   -61.6976 H6            1 RES     
    3127 H6         129.2580  -152.7663   -60.6366 H6            1 RES     
    3128 H6         128.5941  -155.1639   -60.3757 H6            1 RES     
    3129 H6         130.0613  -155.6538   -61.3393 H6            1 RES     
    3130 H6         131.4415  -154.3363   -59.6152 H6            1 RES     
    3131 H6         129.9450  -154.1415   -58.6407 H6            1 RES     
    3132 H6         131.4795  -156.7548   -59.3260 H6            1 RES     
    3133 H6         131.4331  -155.8432   -57.7888 H6            1 RES     
    3134 H6         128.9629  -156.4188   -57.5363 H6            1 RES     
    3135 H6         130.1754  -157.7173   -57.4261 H6            1 RES     
    3136 H6         128.4336  -157.1870   -59.8688 H6            1 RES     
    3137 H6         129.6959  -158.4465   -59.8106 H6            1 RES     
    3138 H6         127.2821  -159.1343   -59.5430 H6            1 RES     
    3139 H6         127.2027  -158.3078   -57.9664 H6            1 RES     
    3140 H6         127.4554  -160.7964   -57.8792 H6            1 RES     
    3141 H6         128.9649  -160.7258   -58.8392 H6            1 RES     
    3142 H6         129.3602  -161.2339   -56.4669 H6            1 RES     
    3143 H6         130.1722  -159.7293   -56.9101 H6            1 RES     
    3144 H6         127.4590  -159.9819   -55.4346 H6            1 RES     
    3145 H6         129.0462  -159.5551   -54.6893 H6            1 RES     
    3146 H6         128.2684  -158.4147   -55.8418 H6            1 RES     
    3147 C0         127.8288  -152.2131   -79.0337 C0            1 RES     
    3148 C1         127.5577  -151.0541   -78.0520 C1            1 RES     
    3149 C1         127.7301  -149.7072   -78.6342 C1            1 RES     
    3150 S2         128.3619  -148.6787   -77.2998 S2            1 RES     
    3151 C1         127.3339  -149.7384   -76.2586 C1            1 RES     
    3152 C1         127.1945  -151.0133   -76.7746 C1            1 RES     
    3153 C1         128.5066  -150.0535   -79.8154 C1            1 RES     
    3154 C1         128.5573  -151.3890   -80.0919 C1            1 RES     
    3155 C1         129.2468  -151.6703   -81.2851 C1            1 RES     
    3156 C1         129.6784  -150.4851   -81.9276 C1            1 RES     
    3157 S2         129.2026  -149.1382   -81.0088 S2            1 RES     
    3158 H3         126.9458  -151.8572   -76.1524 H3            1 RES     
    3159 H3         129.4091  -152.6690   -81.6709 H3            1 RES     
    3160 N4         131.1708  -151.4554   -83.6300 N4            1 RES     
    3161 C1         131.9520  -151.4118   -84.7499 C1            1 RES     
    3162 C1         132.0331  -150.2478   -85.5238 C1            1 RES     
    3163 C1         131.2970  -149.1387   -85.1266 C1            1 RES     
    3164 N4         131.2816  -147.9666   -85.8075 N4            1 RES     
    3165 S2         130.2538  -147.0467   -84.8991 S2            1 RES     
    3166 N4         129.8205  -148.0513   -83.6613 N4            1 RES     
    3167 C1         130.5026  -149.1912   -83.9490 C1            1 RES     
    3168 C1         130.4494  -150.3809   -83.1910 C1            1 RES     
    3169 H5         132.5215  -152.2850   -85.0409 H5            1 RES     
    3170 C0         126.4864  -152.7373   -79.6397 C0            1 RES     
    3171 C0         125.5612  -153.3937   -78.6102 C0            1 RES     
    3172 C0         124.1693  -153.7941   -79.1090 C0            1 RES     
    3173 C0         123.2766  -152.6425   -79.5982 C0            1 RES     
    3174 C0         123.2575  -151.4325   -78.6417 C0            1 RES     
    3175 C0         122.1505  -150.4327   -78.9976 C0            1 RES     
    3176 C0         120.7906  -150.9136   -78.4677 C0            1 RES     
    3177 C0         119.6611  -149.9634   -78.8675 C0            1 RES     
    3178 C0         118.3645  -150.3424   -78.1453 C0            1 RES     
    3179 C0         117.0736  -149.6743   -78.6594 C0            1 RES     
    3180 C0         117.0004  -148.1342   -78.6639 C0            1 RES     
    3181 C0         117.7026  -147.4821   -79.8760 C0            1 RES     
    3182 C0         117.5912  -145.9462   -79.9510 C0            1 RES     
    3183 C0         116.2809  -145.3532   -80.5227 C0            1 RES     
    3184 C0         114.9831  -145.5383   -79.7225 C0            1 RES     
    3185 C0         115.0834  -144.9995   -78.2967 C0            1 RES     
    3186 H6         125.9530  -151.8667   -80.0768 H6            1 RES     
    3187 H6         126.6886  -153.4532   -80.4661 H6            1 RES     
    3188 H6         126.0323  -154.3159   -78.2741 H6            1 RES     
    3189 H6         125.4228  -152.7284   -77.7379 H6            1 RES     
    3190 H6         124.2470  -154.5608   -79.9101 H6            1 RES     
    3191 H6         123.6575  -154.2666   -78.2407 H6            1 RES     
    3192 H6         123.6153  -152.2884   -80.5960 H6            1 RES     
    3193 H6         122.2622  -153.0740   -79.7244 H6            1 RES     
    3194 H6         123.1358  -151.7434   -77.5810 H6            1 RES     
    3195 H6         124.2387  -150.9198   -78.7361 H6            1 RES     
    3196 H6         122.1380  -150.2540   -80.0957 H6            1 RES     
    3197 H6         122.3706  -149.4663   -78.4931 H6            1 RES     
    3198 H6         120.5429  -151.9260   -78.8487 H6            1 RES     
    3199 H6         120.8590  -150.9628   -77.3575 H6            1 RES     
    3200 H6         119.9431  -148.9351   -78.5629 H6            1 RES     
    3201 H6         119.5294  -150.0254   -79.9699 H6            1 RES     
    3202 H6         118.1997  -151.4377   -78.2500 H6            1 RES     
    3203 H6         118.4949  -150.1227   -77.0619 H6            1 RES     
    3204 H6         116.8200  -150.0511   -79.6737 H6            1 RES     
    3205 H6         116.2785  -150.0371   -77.9701 H6            1 RES     
    3206 H6         117.3716  -147.7246   -77.6996 H6            1 RES     
    3207 H6         115.9300  -147.9054   -78.7303 H6            1 RES     
    3208 H6         118.7794  -147.6892   -79.8041 H6            1 RES     
    3209 H6         117.3443  -147.9228   -80.8315 H6            1 RES     
    3210 H6         118.3721  -145.6232   -80.6757 H6            1 RES     
    3211 H6         117.8598  -145.4920   -78.9740 H6            1 RES     
    3212 H6         116.4466  -144.2580   -80.6252 H6            1 RES     
    3213 H6         116.1197  -145.7593   -81.5453 H6            1 RES     
    3214 H6         114.1777  -144.9825   -80.2495 H6            1 RES     
    3215 H6         114.6643  -146.5948   -79.7202 H6            1 RES     
    3216 H6         115.3499  -143.9216   -78.3115 H6            1 RES     
    3217 H6         114.1041  -145.1184   -77.7874 H6            1 RES     
    3218 H6         115.8459  -145.5562   -77.7147 H6            1 RES     
    3219 C0         128.7866  -153.3572   -78.5003 C0            1 RES     
    3220 C0         128.5525  -153.7938   -77.0333 C0            1 RES     
    3221 C0         129.3325  -155.0229   -76.5183 C0            1 RES     
    3222 C0         128.8279  -156.4240   -76.9437 C0            1 RES     
    3223 C0         127.3137  -156.6067   -76.7105 C0            1 RES     
    3224 C0         126.8165  -158.0594   -76.7247 C0            1 RES     
    3225 C0         127.0863  -158.7618   -75.3839 C0            1 RES     
    3226 C0         126.5057  -160.1835   -75.3618 C0            1 RES     
    3227 C0         126.6220  -160.7888   -73.9566 C0            1 RES     
    3228 C0         126.3364  -162.3003   -73.8236 C0            1 RES     
    3229 C0         124.9263  -162.8270   -74.1655 C0            1 RES     
    3230 C0         124.6616  -162.9965   -75.6756 C0            1 RES     
    3231 C0         123.2935  -163.6147   -76.0345 C0            1 RES     
    3232 C0         123.1591  -165.1556   -75.9479 C0            1 RES     
    3233 C0         123.2265  -165.8239   -74.5661 C0            1 RES     
    3234 C0         122.1813  -165.2821   -73.5929 C0            1 RES     
    3235 H6         128.7107  -154.2236   -79.1925 H6            1 RES     
    3236 H6         129.8439  -153.0104   -78.5302 H6            1 RES     
    3237 H6         128.9029  -152.9441   -76.4114 H6            1 RES     
    3238 H6         127.4923  -153.9534   -76.7958 H6            1 RES     
    3239 H6         130.4164  -154.9185   -76.7390 H6            1 RES     
    3240 H6         129.2213  -155.0002   -75.4109 H6            1 RES     
    3241 H6         129.0561  -156.6338   -78.0112 H6            1 RES     
    3242 H6         129.3946  -157.1523   -76.3257 H6            1 RES     
    3243 H6         126.9871  -156.1382   -75.7559 H6            1 RES     
    3244 H6         126.8148  -156.0912   -77.5418 H6            1 RES     
    3245 H6         127.2430  -158.6137   -77.5893 H6            1 RES     
    3246 H6         125.7117  -158.0293   -76.8456 H6            1 RES     
    3247 H6         128.1758  -158.8034   -75.1752 H6            1 RES     
    3248 H6         126.5936  -158.1676   -74.5809 H6            1 RES     
    3249 H6         125.4335  -160.1196   -75.6303 H6            1 RES     
    3250 H6         127.0555  -160.8041   -76.1013 H6            1 RES     
    3251 H6         127.6698  -160.6520   -73.6087 H6            1 RES     
    3252 H6         125.9601  -160.2206   -73.2654 H6            1 RES     
    3253 H6         127.0933  -162.8870   -74.3875 H6            1 RES     
    3254 H6         126.4960  -162.5175   -72.7434 H6            1 RES     
    3255 H6         124.1476  -162.1985   -73.6815 H6            1 RES     
    3256 H6         124.8807  -163.8204   -73.7019 H6            1 RES     
    3257 H6         124.6599  -161.9970   -76.1326 H6            1 RES     
    3258 H6         125.4681  -163.5874   -76.1612 H6            1 RES     
    3259 H6         123.1389  -163.3924   -77.1142 H6            1 RES     
    3260 H6         122.4781  -163.0976   -75.4859 H6            1 RES     
    3261 H6         122.1683  -165.4135   -76.3834 H6            1 RES     
    3262 H6         123.9339  -165.6196   -76.5967 H6            1 RES     
    3263 H6         123.0393  -166.9110   -74.7062 H6            1 RES     
    3264 H6         124.2396  -165.7481   -74.1346 H6            1 RES     
    3265 H6         121.1612  -165.4151   -74.0116 H6            1 RES     
    3266 H6         122.2474  -165.8370   -72.6335 H6            1 RES     
    3267 H6         122.3542  -164.2066   -73.3844 H6            1 RES     
    3268 C0         134.2727  -151.7410   -90.0900 C0            1 RES     
    3269 C1         133.7967  -150.9074   -88.8821 C1            1 RES     
    3270 C1         134.4850  -149.6094   -88.7263 C1            1 RES     
    3271 S2         134.5883  -149.3245   -86.9526 S2            1 RES     
    3272 C1         133.0038  -150.1917   -86.9183 C1            1 RES     
    3273 C1         132.8829  -151.1148   -87.9401 C1            1 RES     
    3274 C1         135.6473  -149.8509   -89.5680 C1            1 RES     
    3275 C1         135.5629  -150.9676   -90.3482 C1            1 RES     
    3276 C1         136.6692  -151.1164   -91.2040 C1            1 RES     
    3277 C1         137.5768  -150.0381   -91.0723 C1            1 RES     
    3278 S2         136.9921  -148.9453   -89.9111 S2            1 RES     
    3279 H3         132.2081  -151.9526   -87.8761 H3            1 RES     
    3280 H3         136.7983  -151.9442   -91.8901 H3            1 RES     
    3281 N4         139.4799  -150.9387   -92.3505 N4            1 RES     
    3282 C1         140.6929  -150.8557   -92.9735 C1            1 RES     
    3283 C1         141.3590  -149.6294   -93.0877 C1            1 RES     
    3284 C1         140.7545  -148.4980   -92.5543 C1            1 RES     
    3285 N4         141.2950  -147.2568   -92.6233 N4            1 RES     
    3286 S2         140.1595  -146.3365   -91.8542 S2            1 RES     
    3287 N4         139.0010  -147.4300   -91.4167 N4            1 RES     
    3288 C1         139.5009  -148.6011   -91.8922 C1            1 RES     
    3289 C1         138.8614  -149.8555   -91.7921 C1            1 RES     
    3290 H5         141.1498  -151.7492   -93.3791 H5            1 RES     
    3291 C0         133.3107  -151.5355   -91.3051 C0            1 RES     
    3292 C0         131.8983  -152.0805   -91.0709 C0            1 RES     
    3293 C0         130.8667  -151.7792   -92.1625 C0            1 RES     
    3294 C0         130.5601  -150.2922   -92.4017 C0            1 RES     
    3295 C0         130.3220  -149.4981   -91.1009 C0            1 RES     
    3296 C0         129.7388  -148.1062   -91.3728 C0            1 RES     
    3297 C0         128.2270  -148.1905   -91.6358 C0            1 RES     
    3298 C0         127.6358  -146.8212   -91.9734 C0            1 RES     
    3299 C0         126.1063  -146.8952   -92.0106 C0            1 RES     
    3300 C0         125.3764  -145.6825   -92.6221 C0            1 RES     
    3301 C0         125.6157  -144.2943   -91.9954 C0            1 RES     
    3302 C0         126.9235  -143.6178   -92.4638 C0            1 RES     
    3303 C0         127.1629  -142.1986   -91.9113 C0            1 RES     
    3304 C0         126.4294  -141.0281   -92.6096 C0            1 RES     
    3305 C0         124.8993  -140.9534   -92.4999 C0            1 RES     
    3306 C0         124.4085  -140.9340   -91.0536 C0            1 RES     
    3307 H6         133.2323  -150.4432   -91.4900 H6            1 RES     
    3308 H6         133.7396  -151.9983   -92.2206 H6            1 RES     
    3309 H6         131.9616  -153.1660   -91.0143 H6            1 RES     
    3310 H6         131.4922  -151.6993   -90.1157 H6            1 RES     
    3311 H6         131.1670  -152.2489   -93.1242 H6            1 RES     
    3312 H6         129.9212  -152.2653   -91.8323 H6            1 RES     
    3313 H6         131.3963  -149.8094   -92.9526 H6            1 RES     
    3314 H6         129.6677  -150.2658   -93.0604 H6            1 RES     
    3315 H6         129.6502  -150.0406   -90.4002 H6            1 RES     
    3316 H6         131.3074  -149.3758   -90.6022 H6            1 RES     
    3317 H6         130.2878  -147.6206   -92.2098 H6            1 RES     
    3318 H6         129.8742  -147.4815   -90.4626 H6            1 RES     
    3319 H6         128.0000  -148.8821   -92.4734 H6            1 RES     
    3320 H6         127.7453  -148.5857   -90.7130 H6            1 RES     
    3321 H6         127.9318  -146.1057   -91.1797 H6            1 RES     
    3322 H6         128.0379  -146.5033   -92.9602 H6            1 RES     
    3323 H6         125.8020  -147.7716   -92.6248 H6            1 RES     
    3324 H6         125.7427  -147.0677   -90.9728 H6            1 RES     
    3325 H6         125.5708  -145.6241   -93.7148 H6            1 RES     
    3326 H6         124.2953  -145.9157   -92.4967 H6            1 RES     
    3327 H6         125.5524  -144.3519   -90.8872 H6            1 RES     
    3328 H6         124.7752  -143.6818   -92.3434 H6            1 RES     
    3329 H6         127.7711  -144.2150   -92.0998 H6            1 RES     
    3330 H6         126.9877  -143.5950   -93.5734 H6            1 RES     
    3331 H6         128.2411  -141.9850   -92.0882 H6            1 RES     
    3332 H6         127.0143  -142.1831   -90.8110 H6            1 RES     
    3333 H6         126.8336  -140.0912   -92.1666 H6            1 RES     
    3334 H6         126.7013  -141.0269   -93.6879 H6            1 RES     
    3335 H6         124.5697  -140.0133   -92.9928 H6            1 RES     
    3336 H6         124.4196  -141.7709   -93.0653 H6            1 RES     
    3337 H6         124.8536  -140.0749   -90.5087 H6            1 RES     
    3338 H6         123.3031  -140.8314   -91.0403 H6            1 RES     
    3339 H6         124.6749  -141.8753   -90.5313 H6            1 RES     
    3340 C0         134.6153  -153.2582   -89.7873 C0            1 RES     
    3341 C0         133.6285  -153.9902   -88.8450 C0            1 RES     
    3342 C0         133.8110  -155.5121   -88.6586 C0            1 RES     
    3343 C0         133.3095  -156.4402   -89.7927 C0            1 RES     
    3344 C0         131.8656  -156.1174   -90.2302 C0            1 RES     
    3345 C0         131.1638  -157.2147   -91.0433 C0            1 RES     
    3346 C0         130.6171  -158.3283   -90.1350 C0            1 RES     
    3347 C0         129.8325  -159.3785   -90.9352 C0            1 RES     
    3348 C0         129.1426  -160.3692   -89.9883 C0            1 RES     
    3349 C0         128.5401  -161.6391   -90.6273 C0            1 RES     
    3350 C0         127.3934  -161.4889   -91.6497 C0            1 RES     
    3351 C0         127.8556  -161.0974   -93.0682 C0            1 RES     
    3352 C0         126.7351  -161.0383   -94.1282 C0            1 RES     
    3353 C0         126.2787  -162.3757   -94.7631 C0            1 RES     
    3354 C0         125.5456  -163.3972   -93.8802 C0            1 RES     
    3355 C0         124.2907  -162.8237   -93.2251 C0            1 RES     
    3356 H6         134.7126  -153.7919   -90.7574 H6            1 RES     
    3357 H6         135.6026  -153.3291   -89.2781 H6            1 RES     
    3358 H6         133.7966  -153.5508   -87.8400 H6            1 RES     
    3359 H6         132.5758  -153.8140   -89.1035 H6            1 RES     
    3360 H6         134.8652  -155.7507   -88.4012 H6            1 RES     
    3361 H6         133.1908  -155.7775   -87.7732 H6            1 RES     
    3362 H6         133.9745  -156.3944   -90.6822 H6            1 RES     
    3363 H6         133.3576  -157.4722   -89.3852 H6            1 RES     
    3364 H6         131.2207  -155.8654   -89.3596 H6            1 RES     
    3365 H6         131.9361  -155.2352   -90.8802 H6            1 RES     
    3366 H6         131.8345  -157.6054   -91.8396 H6            1 RES     
    3367 H6         130.2812  -156.7493   -91.5337 H6            1 RES     
    3368 H6         131.4424  -158.8242   -89.5824 H6            1 RES     
    3369 H6         129.9269  -157.8600   -89.3968 H6            1 RES     
    3370 H6         129.0550  -158.8516   -91.5214 H6            1 RES     
    3371 H6         130.5362  -159.9097   -91.6113 H6            1 RES     
    3372 H6         129.9002  -160.7333   -89.2597 H6            1 RES     
    3373 H6         128.3557  -159.8292   -89.4154 H6            1 RES     
    3374 H6         129.3437  -162.2676   -91.0681 H6            1 RES     
    3375 H6         128.1181  -162.2072   -89.7679 H6            1 RES     
    3376 H6         126.6174  -160.7919   -91.2651 H6            1 RES     
    3377 H6         126.9392  -162.4861   -91.7065 H6            1 RES     
    3378 H6         128.2672  -160.0794   -93.0205 H6            1 RES     
    3379 H6         128.6635  -161.7707   -93.4278 H6            1 RES     
    3380 H6         127.1622  -160.4676   -94.9832 H6            1 RES     
    3381 H6         125.8751  -160.4454   -93.7512 H6            1 RES     
    3382 H6         125.5881  -162.1134   -95.5950 H6            1 RES     
    3383 H6         127.1621  -162.8772   -95.2152 H6            1 RES     
    3384 H6         125.2408  -164.2478   -94.5283 H6            1 RES     
    3385 H6         126.2218  -163.8272   -93.1211 H6            1 RES     
    3386 H6         123.5913  -162.4455   -94.0006 H6            1 RES     
    3387 H6         123.7806  -163.6203   -92.6439 H6            1 RES     
    3388 H6         124.5484  -161.9983   -92.5307 H6            1 RES     
    3389 C0         145.1696  -150.4215   -96.6860 C0            1 RES     
    3390 C1         144.3467  -149.8671   -95.5045 C1            1 RES     
    3391 C1         145.1142  -149.0178   -94.5705 C1            1 RES     
    3392 S2         144.4103  -149.3261   -92.9435 S2            1 RES     
    3393 C1         142.8680  -149.5237   -93.8635 C1            1 RES     
    3394 C1         143.0733  -149.9940   -95.1470 C1            1 RES     
    3395 C1         146.4652  -149.4077   -94.9459 C1            1 RES     
    3396 C1         146.5486  -150.1334   -96.0988 C1            1 RES     
    3397 C1         147.8762  -150.4168   -96.4667 C1            1 RES     
    3398 C1         148.8005  -149.8345   -95.5665 C1            1 RES     
    3399 S2         147.9573  -148.9978   -94.3526 S2            1 RES     
    3400 H3         142.3017  -150.5064   -95.6978 H3            1 RES     
    3401 H3         148.1537  -150.9930   -97.3406 H3            1 RES     
    3402 N4         150.8662  -150.9484   -96.3138 N4            1 RES     
    3403 C1         152.2192  -151.1345   -96.3513 C1            1 RES     
    3404 C1         153.0829  -150.2610   -95.6795 C1            1 RES     
    3405 C1         152.5304  -149.1981   -94.9760 C1            1 RES     
    3406 N4         153.2679  -148.2788   -94.3062 N4            1 RES     
    3407 S2         152.1069  -147.2779   -93.6915 S2            1 RES     
    3408 N4         150.6926  -147.9496   -94.2188 N4            1 RES     
    3409 C1         151.1201  -149.0264   -94.9296 C1            1 RES     
    3410 C1         150.2804  -149.9303   -95.6153 C1            1 RES     
    3411 H5         152.6304  -151.9710   -96.9014 H5            1 RES     
    3412 C0         144.9665  -149.5311   -97.9548 C0            1 RES     
    3413 C0         143.5387  -149.5658   -98.5091 C0            1 RES     
    3414 C0         143.2358  -148.6017   -99.6603 C0            1 RES     
    3415 C0         143.3770  -147.1060   -99.3356 C0            1 RES     
    3416 C0         142.7058  -146.7007   -98.0073 C0            1 RES     
    3417 C0         142.6072  -145.1784   -97.8512 C0            1 RES     
    3418 C0         141.4217  -144.6235   -98.6565 C0            1 RES     
    3419 C0         141.3433  -143.0989   -98.5674 C0            1 RES     
    3420 C0         140.0367  -142.5949   -99.1880 C0            1 RES     
    3421 C0         139.9400  -141.0774   -99.4429 C0            1 RES     
    3422 C0         140.1156  -140.1232   -98.2447 C0            1 RES     
    3423 C0         141.5913  -139.8652   -97.8664 C0            1 RES     
    3424 C0         141.8084  -138.8618   -96.7162 C0            1 RES     
    3425 C0         141.7419  -137.3547   -97.0623 C0            1 RES     
    3426 C0         140.3935  -136.7624   -97.4981 C0            1 RES     
    3427 C0         139.2854  -136.9919   -96.4721 C0            1 RES     
    3428 H6         145.2004  -148.4833   -97.6704 H6            1 RES     
    3429 H6         145.6814  -149.8269   -98.7534 H6            1 RES     
    3430 H6         143.3546  -150.5642   -98.9023 H6            1 RES     
    3431 H6         142.8086  -149.3620   -97.7042 H6            1 RES     
    3432 H6         143.8613  -148.8430  -100.5469 H6            1 RES     
    3433 H6         142.1736  -148.7830   -99.9395 H6            1 RES     
    3434 H6         144.4505  -146.8226   -99.2804 H6            1 RES     
    3435 H6         142.9328  -146.5630  -100.1951 H6            1 RES     
    3436 H6         141.6898  -147.1408   -97.9041 H6            1 RES     
    3437 H6         143.3351  -147.0992   -97.1828 H6            1 RES     
    3438 H6         143.5721  -144.7035   -98.1363 H6            1 RES     
    3439 H6         142.4096  -144.9440   -96.7821 H6            1 RES     
    3440 H6         141.4932  -144.9048   -99.7276 H6            1 RES     
    3441 H6         140.4910  -145.0684   -98.2374 H6            1 RES     
    3442 H6         141.3566  -142.8087   -97.4973 H6            1 RES     
    3443 H6         142.2214  -142.6745   -99.1016 H6            1 RES     
    3444 H6         139.8991  -143.0771  -100.1812 H6            1 RES     
    3445 H6         139.1956  -142.9201   -98.5355 H6            1 RES     
    3446 H6         140.6403  -140.7751  -100.2513 H6            1 RES     
    3447 H6         138.9087  -140.9256   -99.8331 H6            1 RES     
    3448 H6         139.5203  -140.4772   -97.3753 H6            1 RES     
    3449 H6         139.6813  -139.1730   -98.5780 H6            1 RES     
    3450 H6         142.0269  -140.8093   -97.5106 H6            1 RES     
    3451 H6         142.1812  -139.5419   -98.7513 H6            1 RES     
    3452 H6         142.8580  -139.0148   -96.3779 H6            1 RES     
    3453 H6         141.1581  -139.1178   -95.8534 H6            1 RES     
    3454 H6         142.0586  -136.8052   -96.1485 H6            1 RES     
    3455 H6         142.4905  -137.1354   -97.8548 H6            1 RES     
    3456 H6         140.5298  -135.6667   -97.6252 H6            1 RES     
    3457 H6         140.0938  -137.1428   -98.4898 H6            1 RES     
    3458 H6         139.5734  -136.5560   -95.4921 H6            1 RES     
    3459 H6         138.3523  -136.5017   -96.8207 H6            1 RES     
    3460 H6         139.0807  -138.0743   -96.3444 H6            1 RES     
    3461 C0         145.0229  -151.9757   -96.9578 C0            1 RES     
    3462 C0         143.5847  -152.5394   -96.8505 C0            1 RES     
    3463 C0         143.3557  -154.0050   -97.2791 C0            1 RES     
    3464 C0         143.2877  -154.3078   -98.7965 C0            1 RES     
    3465 C0         142.3231  -153.3667   -99.5478 C0            1 RES     
    3466 C0         141.8971  -153.8403  -100.9450 C0            1 RES     
    3467 C0         140.7779  -154.8916  -100.8680 C0            1 RES     
    3468 C0         140.2841  -155.2971  -102.2646 C0            1 RES     
    3469 C0         139.0476  -156.1991  -102.1556 C0            1 RES     
    3470 C0         138.5899  -156.9126  -103.4461 C0            1 RES     
    3471 C0         138.1258  -156.0603  -104.6465 C0            1 RES     
    3472 C0         139.2761  -155.4657  -105.4845 C0            1 RES     
    3473 C0         138.8347  -154.6923  -106.7454 C0            1 RES     
    3474 C0         138.4870  -155.5199  -108.0080 C0            1 RES     
    3475 C0         137.2382  -156.4145  -107.9808 C0            1 RES     
    3476 C0         135.9619  -155.6427  -107.6520 C0            1 RES     
    3477 H6         145.4662  -152.1969   -97.9528 H6            1 RES     
    3478 H6         145.6113  -152.5486   -96.2064 H6            1 RES     
    3479 H6         143.3338  -152.5085   -95.7701 H6            1 RES     
    3480 H6         142.8410  -151.9234   -97.3734 H6            1 RES     
    3481 H6         144.0891  -154.6764   -96.7831 H6            1 RES     
    3482 H6         142.3495  -154.2737   -96.8860 H6            1 RES     
    3483 H6         144.2914  -154.2482   -99.2705 H6            1 RES     
    3484 H6         142.9332  -155.3568   -98.8821 H6            1 RES     
    3485 H6         141.4035  -153.1650   -98.9552 H6            1 RES     
    3486 H6         142.8659  -152.4219   -99.6836 H6            1 RES     
    3487 H6         142.7763  -154.1958  -101.5259 H6            1 RES     
    3488 H6         141.4663  -152.9626  -101.4742 H6            1 RES     
    3489 H6         141.1240  -155.7936  -100.3212 H6            1 RES     
    3490 H6         139.9250  -154.4434  -100.3092 H6            1 RES     
    3491 H6         140.0010  -154.3754  -102.8086 H6            1 RES     
    3492 H6         141.1066  -155.8241  -102.7940 H6            1 RES     
    3493 H6         139.2773  -157.0118  -101.4315 H6            1 RES     
    3494 H6         138.2049  -155.6036  -101.7382 H6            1 RES     
    3495 H6         139.3666  -157.6312  -103.7857 H6            1 RES     
    3496 H6         137.7071  -157.5133  -103.1313 H6            1 RES     
    3497 H6         137.4131  -155.2747  -104.3141 H6            1 RES     
    3498 H6         137.5699  -156.7585  -105.2847 H6            1 RES     
    3499 H6         139.8040  -154.7309  -104.8605 H6            1 RES     
    3500 H6         140.0089  -156.2493  -105.7746 H6            1 RES     
    3501 H6         139.7204  -154.0924  -107.0536 H6            1 RES     
    3502 H6         138.0333  -153.9657  -106.4943 H6            1 RES     
    3503 H6         138.3443  -154.7913  -108.8366 H6            1 RES     
    3504 H6         139.3622  -156.1524  -108.2737 H6            1 RES     
    3505 H6         137.1214  -156.8637  -108.9913 H6            1 RES     
    3506 H6         137.3707  -157.2646  -107.2894 H6            1 RES     
    3507 H6         135.8072  -154.8250  -108.3876 H6            1 RES     
    3508 H6         135.0920  -156.3311  -107.6971 H6            1 RES     
    3509 H6         136.0113  -155.2122  -106.6311 H6            1 RES     
    3510 C0         157.9127  -151.2923   -97.6044 C0            1 RES     
    3511 C1         156.7509  -150.8501   -96.6905 C1            1 RES     
    3512 C1         157.1271  -150.6552   -95.2751 C1            1 RES     
    3513 S2         155.6863  -151.1495   -94.3172 S2            1 RES     
    3514 C1         154.7668  -150.4901   -95.7256 C1            1 RES     
    3515 C1         155.4647  -150.6026   -96.9135 C1            1 RES     
    3516 C1         158.3878  -151.3822   -95.2590 C1            1 RES     
    3517 C1         158.8691  -151.7142   -96.4922 C1            1 RES     
    3518 C1         160.1269  -152.3408   -96.4331 C1            1 RES     
    3519 C1         160.6015  -152.4290   -95.1024 C1            1 RES     
    3520 S2         159.4618  -151.7395   -94.0486 S2            1 RES     
    3521 H3         154.9674  -150.6113   -97.8695 H3            1 RES     
    3522 H3         160.6702  -152.6938   -97.3008 H3            1 RES     
    3523 N4         162.5112  -153.9470   -95.4422 N4            1 RES     
    3524 C1         163.6517  -154.5942   -95.0589 C1            1 RES     
    3525 C1         164.2402  -154.3358   -93.8150 C1            1 RES     
    3526 C1         163.6376  -153.4024   -92.9810 C1            1 RES     
    3527 N4         164.1280  -153.0569   -91.7654 N4            1 RES     
    3528 S2         163.0345  -151.9301   -91.2534 S2            1 RES     
    3529 N4         161.9446  -151.8518   -92.4924 N4            1 RES     
    3530 C1         162.4410  -152.7497   -93.3840 C1            1 RES     
    3531 C1         161.8736  -153.0395   -94.6436 C1            1 RES     
    3532 H5         164.1040  -155.3212   -95.7209 H5            1 RES     
    3533 C0         158.5187  -150.0582   -98.3485 C0            1 RES     
    3534 C0         157.5541  -149.4045   -99.3430 C0            1 RES     
    3535 C0         158.0327  -148.1035   -99.9948 C0            1 RES     
    3536 C0         158.2896  -146.9296   -99.0364 C0            1 RES     
    3537 C0         157.1585  -146.7176   -98.0093 C0            1 RES     
    3538 C0         157.2957  -145.3831   -97.2666 C0            1 RES     
    3539 C0         156.7735  -144.2232   -98.1288 C0            1 RES     
    3540 C0         156.9605  -142.8743   -97.4331 C0            1 RES     
    3541 C0         156.2362  -141.7694   -98.2085 C0            1 RES     
    3542 C0         156.5707  -140.3188   -97.8073 C0            1 RES     
    3543 C0         156.3339  -139.8928   -96.3445 C0            1 RES     
    3544 C0         157.4671  -140.3152   -95.3828 C0            1 RES     
    3545 C0         157.2985  -139.8468   -93.9237 C0            1 RES     
    3546 C0         157.7004  -138.3896   -93.5913 C0            1 RES     
    3547 C0         156.8692  -137.2459   -94.1913 C0            1 RES     
    3548 C0         155.3850  -137.3461   -93.8446 C0            1 RES     
    3549 H6         158.7870  -149.3019   -97.5807 H6            1 RES     
    3550 H6         159.4552  -150.3454   -98.8746 H6            1 RES     
    3551 H6         157.3901  -150.1033  -100.1616 H6            1 RES     
    3552 H6         156.5836  -149.1949   -98.8565 H6            1 RES     
    3553 H6         158.9453  -148.2840  -100.6032 H6            1 RES     
    3554 H6         157.2211  -147.7936  -100.6910 H6            1 RES     
    3555 H6         159.2377  -147.0875   -98.4780 H6            1 RES     
    3556 H6         158.4257  -146.0348   -99.6781 H6            1 RES     
    3557 H6         156.1533  -146.7659   -98.4825 H6            1 RES     
    3558 H6         157.2257  -147.5421   -97.2674 H6            1 RES     
    3559 H6         158.3509  -145.2320   -96.9477 H6            1 RES     
    3560 H6         156.6610  -145.4187   -96.3540 H6            1 RES     
    3561 H6         157.2919  -144.1824   -99.1091 H6            1 RES     
    3562 H6         155.6894  -144.3997   -98.3115 H6            1 RES     
    3563 H6         156.5167  -142.9378   -96.4189 H6            1 RES     
    3564 H6         158.0505  -142.6626   -97.3737 H6            1 RES     
    3565 H6         156.4993  -141.8526   -99.2863 H6            1 RES     
    3566 H6         155.1405  -141.9417   -98.1143 H6            1 RES     
    3567 H6         157.6157  -140.0695   -98.0916 H6            1 RES     
    3568 H6         155.9035  -139.6933   -98.4418 H6            1 RES     
    3569 H6         155.3395  -140.2441   -95.9934 H6            1 RES     
    3570 H6         156.3062  -138.7969   -96.3734 H6            1 RES     
    3571 H6         157.4864  -141.4127   -95.3323 H6            1 RES     
    3572 H6         158.4584  -139.9844   -95.7619 H6            1 RES     
    3573 H6         158.0060  -140.4646   -93.3260 H6            1 RES     
    3574 H6         156.2792  -140.0895   -93.5562 H6            1 RES     
    3575 H6         157.6417  -138.2889   -92.4851 H6            1 RES     
    3576 H6         158.7631  -138.2358   -93.8804 H6            1 RES     
    3577 H6         157.2599  -136.2905   -93.7792 H6            1 RES     
    3578 H6         157.0125  -137.1805   -95.2836 H6            1 RES     
    3579 H6         155.2479  -137.3548   -92.7426 H6            1 RES     
    3580 H6         154.8479  -136.4698   -94.2644 H6            1 RES     
    3581 H6         154.9378  -138.2649   -94.2754 H6            1 RES     
    3582 C0         157.6145  -152.5314   -98.5460 C0            1 RES     
    3583 C0         156.2217  -152.5358   -99.2226 C0            1 RES     
    3584 C0         155.9452  -153.6206  -100.2861 C0            1 RES     
    3585 C0         156.5535  -153.4163  -101.6958 C0            1 RES     
    3586 C0         156.2697  -152.0118  -102.2680 C0            1 RES     
    3587 C0         156.4807  -151.8633  -103.7817 C0            1 RES     
    3588 C0         155.2806  -152.4059  -104.5751 C0            1 RES     
    3589 C0         155.4465  -152.1726  -106.0840 C0            1 RES     
    3590 C0         154.1597  -152.5499  -106.8298 C0            1 RES     
    3591 C0         154.2459  -152.6330  -108.3692 C0            1 RES     
    3592 C0         154.5882  -151.3575  -109.1682 C0            1 RES     
    3593 C0         156.0897  -151.0055  -109.1882 C0            1 RES     
    3594 C0         156.4651  -149.7901  -110.0627 C0            1 RES     
    3595 C0         156.6098  -150.0225  -111.5875 C0            1 RES     
    3596 C0         155.3531  -150.3647  -112.4025 C0            1 RES     
    3597 C0         154.2530  -149.3138  -112.2669 C0            1 RES     
    3598 H6         158.4268  -152.5957   -99.3020 H6            1 RES     
    3599 H6         157.6477  -153.4735   -97.9539 H6            1 RES     
    3600 H6         155.4963  -152.7351   -98.4069 H6            1 RES     
    3601 H6         155.9547  -151.5663   -99.6638 H6            1 RES     
    3602 H6         156.2055  -154.6272   -99.8945 H6            1 RES     
    3603 H6         154.8432  -153.6062  -100.4427 H6            1 RES     
    3604 H6         157.6513  -153.5906  -101.6963 H6            1 RES     
    3605 H6         156.0866  -154.1882  -102.3436 H6            1 RES     
    3606 H6         155.2381  -151.6725  -102.0271 H6            1 RES     
    3607 H6         156.9834  -151.3356  -101.7791 H6            1 RES     
    3608 H6         157.4421  -152.3272  -104.0932 H6            1 RES     
    3609 H6         156.5355  -150.7750  -104.0024 H6            1 RES     
    3610 H6         155.1401  -153.4899  -104.3811 H6            1 RES     
    3611 H6         154.3702  -151.8631  -104.2327 H6            1 RES     
    3612 H6         155.6435  -151.0950  -106.2441 H6            1 RES     
    3613 H6         156.3014  -152.7825  -106.4467 H6            1 RES     
    3614 H6         153.8521  -153.5647  -106.4936 H6            1 RES     
    3615 H6         153.3544  -151.8392  -106.5379 H6            1 RES     
    3616 H6         154.9336  -153.4514  -108.6734 H6            1 RES     
    3617 H6         153.2223  -152.9340  -108.6873 H6            1 RES     
    3618 H6         153.9717  -150.5013  -108.8181 H6            1 RES     
    3619 H6         154.2813  -151.5833  -110.1972 H6            1 RES     
    3620 H6         156.3866  -150.7329  -108.1657 H6            1 RES     
    3621 H6         156.7035  -151.8798  -109.4952 H6            1 RES     
    3622 H6         157.4877  -149.4929  -109.7386 H6            1 RES     
    3623 H6         155.8001  -148.9297  -109.8374 H6            1 RES     
    3624 H6         157.0256  -149.0829  -112.0143 H6            1 RES     
    3625 H6         157.3633  -150.8223  -111.7578 H6            1 RES     
    3626 H6         155.6487  -150.4212  -113.4729 H6            1 RES     
    3627 H6         154.9706  -151.3674  -112.1447 H6            1 RES     
    3628 H6         154.6314  -148.3186  -112.5831 H6            1 RES     
    3629 H6         153.3956  -149.5910  -112.9154 H6            1 RES     
    3630 H6         153.8910  -149.2522  -111.2203 H6            1 RES     
    3631 C0         169.0963  -156.4432   -94.0853 C0            1 RES     
    3632 C1         167.7505  -155.8976   -93.5644 C1            1 RES     
    3633 C1         167.4339  -156.2795   -92.1727 C1            1 RES     
    3634 S2         165.6457  -156.4720   -92.1167 S2            1 RES     
    3635 C1         165.6599  -155.1393   -93.3364 C1            1 RES     
    3636 C1         166.8037  -155.1437   -94.1127 C1            1 RES     
    3637 C1         168.3645  -157.3865   -92.0095 C1            1 RES     
    3638 C1         169.3016  -157.4923   -92.9960 C1            1 RES     
    3639 C1         170.2287  -158.5224   -92.7554 C1            1 RES     
    3640 C1         169.9818  -159.1653   -91.5187 C1            1 RES     
    3641 S2         168.6361  -158.4505   -90.7684 S2            1 RES     
    3642 H3         166.8331  -154.6884   -95.0890 H3            1 RES     
    3643 H3         171.0401  -158.7770   -93.4258 H3            1 RES     
    3644 N4         171.4844  -161.1031   -91.7506 N4            1 RES     
    3645 C1         172.1519  -162.2039   -91.2934 C1            1 RES     
    3646 C1         172.1116  -162.5568   -89.9390 C1            1 RES     
    3647 C1         171.3784  -161.7580   -89.0705 C1            1 RES     
    3648 N4         171.2845  -161.9897   -87.7383 N4            1 RES     
    3649 S2         170.3225  -160.7460   -87.2328 S2            1 RES     
    3650 N4         169.9967  -159.9142   -88.6224 N4            1 RES     
    3651 C1         170.6733  -160.6259   -89.5622 C1            1 RES     
    3652 C1         170.7331  -160.3040   -90.9353 C1            1 RES     
    3653 H5         172.7143  -162.8163   -91.9863 H5            1 RES     
    3654 C0         170.2114  -155.3554   -93.9534 C0            1 RES     
    3655 C0         169.9879  -154.1330   -94.8494 C0            1 RES     
    3656 C0         170.9627  -152.9668   -94.6590 C0            1 RES     
    3657 C0         170.9530  -152.3060   -93.2713 C0            1 RES     
    3658 C0         169.5344  -152.0083   -92.7437 C0            1 RES     
    3659 C0         169.5567  -151.0983   -91.5096 C0            1 RES     
    3660 C0         169.7474  -149.6294   -91.9187 C0            1 RES     
    3661 C0         169.8375  -148.7111   -90.6993 C0            1 RES     
    3662 C0         169.8030  -147.2426   -91.1338 C0            1 RES     
    3663 C0         170.1799  -146.2016   -90.0608 C0            1 RES     
    3664 C0         169.3607  -146.1696   -88.7550 C0            1 RES     
    3665 C0         169.7893  -147.2395   -87.7258 C0            1 RES     
    3666 C0         169.0385  -147.1938   -86.3801 C0            1 RES     
    3667 C0         169.5074  -146.1514   -85.3366 C0            1 RES     
    3668 C0         169.3050  -144.6612   -85.6484 C0            1 RES     
    3669 C0         167.8486  -144.3099   -85.9459 C0            1 RES     
    3670 H6         170.2213  -155.0114   -92.8974 H6            1 RES     
    3671 H6         171.2091  -155.7960   -94.1695 H6            1 RES     
    3672 H6         170.1028  -154.4494   -95.8848 H6            1 RES     
    3673 H6         168.9649  -153.7369   -94.7116 H6            1 RES     
    3674 H6         172.0000  -153.2803   -94.9064 H6            1 RES     
    3675 H6         170.6607  -152.1919   -95.3990 H6            1 RES     
    3676 H6         171.4674  -152.9560   -92.5306 H6            1 RES     
    3677 H6         171.5505  -151.3765   -93.3708 H6            1 RES     
    3678 H6         168.8904  -151.5446   -93.5227 H6            1 RES     
    3679 H6         169.0768  -152.9793   -92.4570 H6            1 RES     
    3680 H6         170.3373  -151.4440   -90.7961 H6            1 RES     
    3681 H6         168.5698  -151.1667   -91.0013 H6            1 RES     
    3682 H6         170.6680  -149.4940   -92.5233 H6            1 RES     
    3683 H6         168.8719  -149.3357   -92.5409 H6            1 RES     
    3684 H6         168.9602  -148.9038   -90.0491 H6            1 RES     
    3685 H6         170.7838  -148.9396   -90.1620 H6            1 RES     
    3686 H6         170.5274  -147.0949   -91.9652 H6            1 RES     
    3687 H6         168.7860  -147.0225   -91.5292 H6            1 RES     
    3688 H6         171.2595  -146.2792   -89.8083 H6            1 RES     
    3689 H6         170.0336  -145.2188   -90.5624 H6            1 RES     
    3690 H6         168.2728  -146.2203   -88.9772 H6            1 RES     
    3691 H6         169.5642  -145.1831   -88.3214 H6            1 RES     
    3692 H6         169.5680  -148.2307   -88.1453 H6            1 RES     
    3693 H6         170.8839  -147.1976   -87.5366 H6            1 RES     
    3694 H6         169.2384  -148.1737   -85.8909 H6            1 RES     
    3695 H6         167.9426  -147.1443   -86.5515 H6            1 RES     
    3696 H6         168.9479  -146.3667   -84.3996 H6            1 RES     
    3697 H6         170.5857  -146.3184   -85.1223 H6            1 RES     
    3698 H6         169.6286  -144.0813   -84.7571 H6            1 RES     
    3699 H6         169.9627  -144.3342   -86.4721 H6            1 RES     
    3700 H6         167.2026  -144.5920   -85.0878 H6            1 RES     
    3701 H6         167.7599  -143.2163   -86.1155 H6            1 RES     
    3702 H6         167.4927  -144.8313   -86.8577 H6            1 RES     
    3703 C0         169.0499  -157.1515   -95.5020 C0            1 RES     
    3704 C0         168.1797  -156.4477   -96.5721 C0            1 RES     
    3705 C0         168.2402  -156.9917   -98.0159 C0            1 RES     
    3706 C0         169.4749  -156.6184   -98.8733 C0            1 RES     
    3707 C0         169.7787  -155.1059   -98.8511 C0            1 RES     
    3708 C0         170.7121  -154.6060   -99.9633 C0            1 RES     
    3709 C0         169.9579  -154.4136  -101.2893 C0            1 RES     
    3710 C0         170.8668  -153.8239  -102.3778 C0            1 RES     
    3711 C0         170.0479  -153.4678  -103.6256 C0            1 RES     
    3712 C0         170.8414  -153.1195  -104.9035 C0            1 RES     
    3713 C0         171.7649  -151.8826  -104.8955 C0            1 RES     
    3714 C0         173.1290  -152.1140  -104.2139 C0            1 RES     
    3715 C0         174.1052  -150.9202  -104.2819 C0            1 RES     
    3716 C0         174.9129  -150.7293  -105.5900 C0            1 RES     
    3717 C0         174.1596  -150.3328  -106.8690 C0            1 RES     
    3718 C0         173.3571  -149.0430  -106.7099 C0            1 RES     
    3719 H6         170.0945  -157.2823   -95.8586 H6            1 RES     
    3720 H6         168.6119  -158.1699   -95.4019 H6            1 RES     
    3721 H6         167.1296  -156.5990   -96.2469 H6            1 RES     
    3722 H6         168.3506  -155.3641   -96.6210 H6            1 RES     
    3723 H6         168.0800  -158.0911   -98.0264 H6            1 RES     
    3724 H6         167.3740  -156.5306   -98.5415 H6            1 RES     
    3725 H6         170.3814  -157.1730   -98.5474 H6            1 RES     
    3726 H6         169.2345  -156.9390   -99.9091 H6            1 RES     
    3727 H6         168.8461  -154.5004   -98.8835 H6            1 RES     
    3728 H6         170.2879  -154.9131   -97.8976 H6            1 RES     
    3729 H6         171.5941  -155.2751  -100.0681 H6            1 RES     
    3730 H6         171.0764  -153.6000   -99.6616 H6            1 RES     
    3731 H6         169.5338  -155.3768  -101.6426 H6            1 RES     
    3732 H6         169.1202  -153.7027  -101.1066 H6            1 RES     
    3733 H6         171.3219  -152.8969  -101.9786 H6            1 RES     
    3734 H6         171.6537  -154.5679  -102.6262 H6            1 RES     
    3735 H6         169.4261  -154.3507  -103.8927 H6            1 RES     
    3736 H6         169.3569  -152.6320  -103.3747 H6            1 RES     
    3737 H6         171.4166  -154.0037  -105.2534 H6            1 RES     
    3738 H6         170.0583  -152.9180  -105.6686 H6            1 RES     
    3739 H6         171.2362  -151.0044  -104.4654 H6            1 RES     
    3740 H6         171.9501  -151.6671  -105.9553 H6            1 RES     
    3741 H6         172.9474  -152.2827  -103.1431 H6            1 RES     
    3742 H6         173.6312  -153.0199  -104.6169 H6            1 RES     
    3743 H6         174.8839  -151.1265  -103.5137 H6            1 RES     
    3744 H6         173.5953  -149.9838  -103.9710 H6            1 RES     
    3745 H6         175.6559  -149.9256  -105.3906 H6            1 RES     
    3746 H6         175.4840  -151.6607  -105.7972 H6            1 RES     
    3747 H6         174.9135  -150.1756  -107.6711 H6            1 RES     
    3748 H6         173.5135  -151.1547  -107.2232 H6            1 RES     
    3749 H6         174.0261  -148.2091  -106.4088 H6            1 RES     
    3750 H6         172.8788  -148.7839  -107.6778 H6            1 RES     
    3751 H6         172.5587  -149.1646  -105.9497 H6            1 RES     
    3752 C0         175.9897  -166.1113   -89.2897 C0            1 RES     
    3753 C1         174.6942  -165.2914   -89.1170 C1            1 RES     
    3754 C1         173.6834  -165.9229   -88.2438 C1            1 RES     
    3755 S2         172.0876  -165.4566   -88.9323 S2            1 RES     
    3756 C1         172.9423  -163.9256   -89.3677 C1            1 RES     
    3757 C1         174.2921  -164.1185   -89.5946 C1            1 RES     
    3758 C1         174.1868  -167.2883   -88.2415 C1            1 RES     
    3759 C1         175.4405  -167.4335   -88.7610 C1            1 RES     
    3760 C1         175.9190  -168.7526   -88.6631 C1            1 RES     
    3761 C1         174.9911  -169.5943   -88.0041 C1            1 RES     
    3762 S2         173.6190  -168.6926   -87.5694 S2            1 RES     
    3763 H3         174.8727  -163.4397   -90.1974 H3            1 RES     
    3764 H3         176.8849  -169.0763   -89.0303 H3            1 RES     
    3765 N4         176.0118  -171.7861   -88.4745 N4            1 RES     
    3766 C1         176.1506  -173.1366   -88.3222 C1            1 RES     
    3767 C1         175.3999  -173.8323   -87.3668 C1            1 RES     
    3768 C1         174.5122  -173.1148   -86.5748 C1            1 RES     
    3769 N4         173.7497  -173.6774   -85.6055 N4            1 RES     
    3770 S2         172.9262  -172.3766   -85.0077 S2            1 RES     
    3771 N4         173.4734  -171.1139   -85.9216 N4            1 RES     
    3772 C1         174.3637  -171.7128   -86.7560 C1            1 RES     
    3773 C1         175.1341  -171.0461   -87.7330 C1            1 RES     
    3774 H5         176.8444  -173.6788   -88.9517 H5            1 RES     
    3775 C0         177.0934  -165.5964   -88.3094 C0            1 RES     
    3776 C0         177.5683  -164.1715   -88.6109 C0            1 RES     
    3777 C0         178.5392  -163.5534   -87.5999 C0            1 RES     
    3778 C0         177.9960  -163.3747   -86.1732 C0            1 RES     
    3779 C0         176.5868  -162.7493   -86.1273 C0            1 RES     
    3780 C0         176.1929  -162.3170   -84.7097 C0            1 RES     
    3781 C0         176.8378  -160.9688   -84.3519 C0            1 RES     
    3782 C0         176.5107  -160.5497   -82.9181 C0            1 RES     
    3783 C0         176.9747  -159.1122   -82.6636 C0            1 RES     
    3784 C0         176.9872  -158.6463   -81.1940 C0            1 RES     
    3785 C0         175.6675  -158.7034   -80.3988 C0            1 RES     
    3786 C0         175.3343  -160.1078   -79.8472 C0            1 RES     
    3787 C0         174.0568  -160.1895   -78.9882 C0            1 RES     
    3788 C0         174.1624  -159.7472   -77.5087 C0            1 RES     
    3789 C0         174.4282  -158.2654   -77.2048 C0            1 RES     
    3790 C0         173.3914  -157.3358   -77.8326 C0            1 RES     
    3791 H6         176.6640  -165.6071   -87.2852 H6            1 RES     
    3792 H6         177.9654  -166.2862   -88.3121 H6            1 RES     
    3793 H6         178.1001  -164.1880   -89.5608 H6            1 RES     
    3794 H6         176.7034  -163.4887   -88.7011 H6            1 RES     
    3795 H6         179.4849  -164.1361   -87.5598 H6            1 RES     
    3796 H6         178.7852  -162.5409   -87.9919 H6            1 RES     
    3797 H6         177.9559  -164.3547   -85.6499 H6            1 RES     
    3798 H6         178.7363  -162.7426   -85.6408 H6            1 RES     
    3799 H6         176.4979  -161.8753   -86.8091 H6            1 RES     
    3800 H6         175.8688  -163.5242   -86.4714 H6            1 RES     
    3801 H6         176.4532  -163.1173   -83.9819 H6            1 RES     
    3802 H6         175.0914  -162.1668   -84.6784 H6            1 RES     
    3803 H6         177.9417  -161.0074   -84.4584 H6            1 RES     
    3804 H6         176.4426  -160.2067   -85.0609 H6            1 RES     
    3805 H6         175.4110  -160.5910   -82.7824 H6            1 RES     
    3806 H6         177.0199  -161.2552   -82.2256 H6            1 RES     
    3807 H6         178.0214  -159.0014   -83.0242 H6            1 RES     
    3808 H6         176.3356  -158.4301   -83.2681 H6            1 RES     
    3809 H6         177.7760  -159.1833   -80.6242 H6            1 RES     
    3810 H6         177.2930  -157.5772   -81.2431 H6            1 RES     
    3811 H6         174.8322  -158.2855   -81.0013 H6            1 RES     
    3812 H6         175.8265  -158.0341   -79.5448 H6            1 RES     
    3813 H6         175.1524  -160.7790   -80.6980 H6            1 RES     
    3814 H6         176.1895  -160.5261   -79.2733 H6            1 RES     
    3815 H6         173.8034  -161.2720   -78.9285 H6            1 RES     
    3816 H6         173.2098  -159.6952   -79.5088 H6            1 RES     
    3817 H6         173.1933  -160.0090   -77.0295 H6            1 RES     
    3818 H6         174.9510  -160.3515   -77.0092 H6            1 RES     
    3819 H6         174.3921  -158.1338   -76.1017 H6            1 RES     
    3820 H6         175.4490  -157.9742   -77.5068 H6            1 RES     
    3821 H6         172.3730  -157.6018   -77.4786 H6            1 RES     
    3822 H6         173.6094  -156.2877   -77.5387 H6            1 RES     
    3823 H6         173.4211  -157.3980   -78.9395 H6            1 RES     
    3824 C0         176.4894  -166.3028   -90.7811 C0            1 RES     
    3825 C0         176.3927  -165.0485   -91.6839 C0            1 RES     
    3826 C0         177.0289  -165.1260   -93.0887 C0            1 RES     
    3827 C0         178.5689  -164.9946   -93.1883 C0            1 RES     
    3828 C0         179.1130  -163.7762   -92.4137 C0            1 RES     
    3829 C0         180.5413  -163.3480   -92.7801 C0            1 RES     
    3830 C0         180.5668  -162.5124   -94.0705 C0            1 RES     
    3831 C0         181.9805  -162.0029   -94.3880 C0            1 RES     
    3832 C0         181.9450  -161.0221   -95.5675 C0            1 RES     
    3833 C0         183.3034  -160.6279   -96.1866 C0            1 RES     
    3834 C0         184.3312  -159.8750   -95.3153 C0            1 RES     
    3835 C0         185.1286  -160.7781   -94.3521 C0            1 RES     
    3836 C0         186.2296  -160.0600   -93.5428 C0            1 RES     
    3837 C0         187.5839  -159.8012   -94.2490 C0            1 RES     
    3838 C0         187.6274  -158.7994   -95.4132 C0            1 RES     
    3839 C0         187.1151  -157.4142   -95.0240 C0            1 RES     
    3840 H6         177.5291  -166.6947   -90.7508 H6            1 RES     
    3841 H6         175.8682  -167.0719   -91.2927 H6            1 RES     
    3842 H6         175.3084  -164.8945   -91.8626 H6            1 RES     
    3843 H6         176.7734  -164.1395   -91.1997 H6            1 RES     
    3844 H6         176.6827  -166.0354   -93.6250 H6            1 RES     
    3845 H6         176.6281  -164.2478   -93.6430 H6            1 RES     
    3846 H6         179.0816  -165.9113   -92.8244 H6            1 RES     
    3847 H6         178.7958  -164.8850   -94.2700 H6            1 RES     
    3848 H6         178.4475  -162.8915   -92.5225 H6            1 RES     
    3849 H6         179.1307  -164.0726   -91.3566 H6            1 RES     
    3850 H6         181.2167  -164.2301   -92.8304 H6            1 RES     
    3851 H6         180.9049  -162.6813   -91.9682 H6            1 RES     
    3852 H6         180.1850  -163.1042   -94.9286 H6            1 RES     
    3853 H6         179.9004  -161.6325   -93.9217 H6            1 RES     
    3854 H6         182.3599  -161.4679   -93.4960 H6            1 RES     
    3855 H6         182.6284  -162.8741   -94.6237 H6            1 RES     
    3856 H6         181.3683  -161.4963   -96.3921 H6            1 RES     
    3857 H6         181.3959  -160.1055   -95.2554 H6            1 RES     
    3858 H6         183.7911  -161.5158   -96.6436 H6            1 RES     
    3859 H6         183.0377  -159.9388   -97.0196 H6            1 RES     
    3860 H6         183.8437  -159.0330   -94.7776 H6            1 RES     
    3861 H6         185.0384  -159.4403   -96.0327 H6            1 RES     
    3862 H6         184.4283  -161.1760   -93.6043 H6            1 RES     
    3863 H6         185.5751  -161.6428   -94.8889 H6            1 RES     
    3864 H6         186.4891  -160.7526   -92.7109 H6            1 RES     
    3865 H6         185.8266  -159.1384   -93.0721 H6            1 RES     
    3866 H6         188.2814  -159.4213   -93.4699 H6            1 RES     
    3867 H6         187.9908  -160.7712   -94.6095 H6            1 RES     
    3868 H6         188.6872  -158.6996   -95.7346 H6            1 RES     
    3869 H6         187.0834  -159.1852   -96.2927 H6            1 RES     
    3870 H6         187.7064  -157.0105   -94.1749 H6            1 RES     
    3871 H6         187.2186  -156.7258   -95.8889 H6            1 RES     
    3872 H6         186.0442  -157.4538   -94.7382 H6            1 RES     
    3873 C0         177.7190  -178.5786   -86.9308 C0            1 RES     
    3874 C1         176.6864  -177.4324   -86.9108 C1            1 RES     
    3875 C1         175.2803  -177.8781   -86.8266 C1            1 RES     
    3876 S2         174.3335  -176.6810   -87.7797 S2            1 RES     
    3877 C1         175.5717  -175.5127   -87.1749 C1            1 RES     
    3878 C1         176.7987  -176.1091   -86.9523 C1            1 RES     
    3879 C1         175.4447  -179.2686   -87.2236 C1            1 RES     
    3880 C1         176.7385  -179.7016   -87.2579 C1            1 RES     
    3881 C1         176.8447  -181.0700   -87.5651 C1            1 RES     
    3882 C1         175.5711  -181.6687   -87.7176 C1            1 RES     
    3883 S2         174.3637  -180.4995   -87.4739 S2            1 RES     
    3884 H3         177.7164  -175.5440   -86.9497 H3            1 RES     
    3885 H3         177.7846  -181.6005   -87.6546 H3            1 RES     
    3886 N4         176.2436  -183.8386   -88.6695 N4            1 RES     
    3887 C1         176.0268  -185.1270   -89.0691 C1            1 RES     
    3888 C1         174.7916  -185.7486   -88.8493 C1            1 RES     
    3889 C1         173.7923  -185.0240   -88.2118 C1            1 RES     
    3890 N4         172.5664  -185.5279   -87.9280 N4            1 RES     
    3891 S2         171.8284  -184.2544   -87.1788 S2            1 RES     
    3892 N4         172.9799  -183.0699   -87.1965 N4            1 RES     
    3893 C1         174.0247  -183.6782   -87.8177 C1            1 RES     
    3894 C1         175.2814  -183.0830   -88.0605 C1            1 RES     
    3895 H5         176.8164  -185.6738   -89.5681 H5            1 RES     
    3896 C0         178.2958  -178.8154   -85.4972 C0            1 RES     
    3897 C0         179.1241  -177.6415   -84.9653 C0            1 RES     
    3898 C0         179.5926  -177.7476   -83.5107 C0            1 RES     
    3899 C0         178.4801  -177.8116   -82.4521 C0            1 RES     
    3900 C0         177.3729  -176.7582   -82.6615 C0            1 RES     
    3901 C0         176.4419  -176.6500   -81.4477 C0            1 RES     
    3902 C0         177.0856  -175.8000   -80.3410 C0            1 RES     
    3903 C0         176.2016  -175.7326   -79.0951 C0            1 RES     
    3904 C0         176.7572  -174.7073   -78.1019 C0            1 RES     
    3905 C0         176.1559  -174.7331   -76.6824 C0            1 RES     
    3906 C0         174.6344  -174.5358   -76.5303 C0            1 RES     
    3907 C0         173.8119  -175.8169   -76.7947 C0            1 RES     
    3908 C0         172.2911  -175.6756   -76.5850 C0            1 RES     
    3909 C0         171.7604  -175.7591   -75.1335 C0            1 RES     
    3910 C0         172.1312  -174.6368   -74.1527 C0            1 RES     
    3911 C0         171.7243  -173.2525   -74.6540 C0            1 RES     
    3912 H6         177.4363  -178.9696   -84.8109 H6            1 RES     
    3913 H6         178.9097  -179.7422   -85.4755 H6            1 RES     
    3914 H6         180.0305  -177.5706   -85.5643 H6            1 RES     
    3915 H6         178.5593  -176.6961   -85.0643 H6            1 RES     
    3916 H6         180.2699  -178.6194   -83.3810 H6            1 RES     
    3917 H6         180.1877  -176.8278   -83.3133 H6            1 RES     
    3918 H6         178.0048  -178.8165   -82.4518 H6            1 RES     
    3919 H6         178.9826  -177.6803   -81.4717 H6            1 RES     
    3920 H6         177.7928  -175.7531   -82.8852 H6            1 RES     
    3921 H6         176.7716  -177.0793   -83.5389 H6            1 RES     
    3922 H6         176.1611  -177.6661   -81.0920 H6            1 RES     
    3923 H6         175.5128  -176.1245   -81.7598 H6            1 RES     
    3924 H6         178.0745  -176.2057   -80.0428 H6            1 RES     
    3925 H6         177.2345  -174.7739   -80.7468 H6            1 RES     
    3926 H6         175.1868  -175.4076   -79.4019 H6            1 RES     
    3927 H6         176.1693  -176.7454   -78.6373 H6            1 RES     
    3928 H6         177.8476  -174.8854   -77.9709 H6            1 RES     
    3929 H6         176.6315  -173.6936   -78.5442 H6            1 RES     
    3930 H6         176.4545  -175.6630   -76.1521 H6            1 RES     
    3931 H6         176.6494  -173.8860   -76.1553 H6            1 RES     
    3932 H6         174.2883  -173.6844   -77.1555 H6            1 RES     
    3933 H6         174.4925  -174.2541   -75.4800 H6            1 RES     
    3934 H6         173.9322  -176.0928   -77.8516 H6            1 RES     
    3935 H6         174.1886  -176.6675   -76.1862 H6            1 RES     
    3936 H6         171.8349  -176.5567   -77.0900 H6            1 RES     
    3937 H6         171.9108  -174.7765   -77.1140 H6            1 RES     
    3938 H6         170.6503  -175.7776   -75.2023 H6            1 RES     
    3939 H6         172.0793  -176.7277   -74.6901 H6            1 RES     
    3940 H6         171.5985  -174.8322   -73.1969 H6            1 RES     
    3941 H6         173.2065  -174.6634   -73.9059 H6            1 RES     
    3942 H6         170.6310  -173.2199   -74.8462 H6            1 RES     
    3943 H6         171.9745  -172.4929   -73.8840 H6            1 RES     
    3944 H6         172.2668  -172.9924   -75.5856 H6            1 RES     
    3945 C0         178.8227  -178.4911   -88.0643 C0            1 RES     
    3946 C0         179.4156  -177.0822   -88.3115 C0            1 RES     
    3947 C0         180.6171  -176.9693   -89.2749 C0            1 RES     
    3948 C0         182.0093  -177.3862   -88.7392 C0            1 RES     
    3949 C0         182.3421  -176.7367   -87.3797 C0            1 RES     
    3950 C0         183.8240  -176.7721   -86.9790 C0            1 RES     
    3951 C0         184.6254  -175.6635   -87.6809 C0            1 RES     
    3952 C0         186.0871  -175.6361   -87.2103 C0            1 RES     
    3953 C0         186.8115  -174.4097   -87.7808 C0            1 RES     
    3954 C0         188.3477  -174.3752   -87.6292 C0            1 RES     
    3955 C0         188.9579  -174.3419   -86.2118 C0            1 RES     
    3956 C0         189.0046  -175.7142   -85.5091 C0            1 RES     
    3957 C0         189.7004  -175.7202   -84.1312 C0            1 RES     
    3958 C0         191.2484  -175.7781   -84.1110 C0            1 RES     
    3959 C0         192.0372  -174.5665   -84.6310 C0            1 RES     
    3960 C0         191.6820  -173.2706   -83.9049 C0            1 RES     
    3961 H6         179.6224  -179.2257   -87.8270 H6            1 RES     
    3962 H6         178.3856  -178.7929   -89.0425 H6            1 RES     
    3963 H6         178.6024  -176.4978   -88.7893 H6            1 RES     
    3964 H6         179.6872  -176.5609   -87.3839 H6            1 RES     
    3965 H6         180.3999  -177.4882   -90.2330 H6            1 RES     
    3966 H6         180.7098  -175.8841   -89.5051 H6            1 RES     
    3967 H6         182.0960  -178.4901   -88.6421 H6            1 RES     
    3968 H6         182.7421  -177.0538   -89.5047 H6            1 RES     
    3969 H6         181.9964  -175.6803   -87.3351 H6            1 RES     
    3970 H6         181.7942  -177.3162   -86.6250 H6            1 RES     
    3971 H6         184.2548  -177.7829   -87.1505 H6            1 RES     
    3972 H6         183.8770  -176.5550   -85.8900 H6            1 RES     
    3973 H6         184.5934  -175.7942   -88.7829 H6            1 RES     
    3974 H6         184.1547  -174.6868   -87.4256 H6            1 RES     
    3975 H6         186.0897  -175.5647   -86.1055 H6            1 RES     
    3976 H6         186.5851  -176.5727   -87.5407 H6            1 RES     
    3977 H6         186.6195  -174.3752   -88.8760 H6            1 RES     
    3978 H6         186.3704  -173.4916   -87.3318 H6            1 RES     
    3979 H6         188.8111  -175.2029   -88.2082 H6            1 RES     
    3980 H6         188.6525  -173.4243   -88.1215 H6            1 RES     
    3981 H6         188.4472  -173.5786   -85.5855 H6            1 RES     
    3982 H6         189.9913  -174.0050   -86.3619 H6            1 RES     
    3983 H6         187.9699  -176.0301   -85.3157 H6            1 RES     
    3984 H6         189.4753  -176.4830   -86.1593 H6            1 RES     
    3985 H6         189.3901  -176.6716   -83.6437 H6            1 RES     
    3986 H6         189.3096  -174.8977   -83.4956 H6            1 RES     
    3987 H6         191.5472  -175.9266   -83.0496 H6            1 RES     
    3988 H6         191.5804  -176.6773   -84.6746 H6            1 RES     
    3989 H6         193.1179  -174.7706   -84.4676 H6            1 RES     
    3990 H6         191.9166  -174.4497   -85.7219 H6            1 RES     
    3991 H6         191.8611  -173.3799   -82.8142 H6            1 RES     
    3992 H6         192.3182  -172.4457   -84.2891 H6            1 RES     
    3993 H6         190.6205  -172.9988   -84.0761 H6            1 RES     
    3994 C0         175.6455  -190.9156   -89.6673 C0            1 RES     
    3995 C1         174.9747  -189.5321   -89.5386 C1            1 RES     
    3996 C1         173.6434  -189.4373   -90.1722 C1            1 RES     
    3997 S2         173.5212  -187.7538   -90.7957 S2            1 RES     
    3998 C1         174.5200  -187.3519   -89.3448 C1            1 RES     
    3999 C1         175.3483  -188.3922   -88.9673 C1            1 RES     
    4000 C1         173.7033  -190.6085   -91.0340 C1            1 RES     
    4001 C1         174.7436  -191.4531   -90.7750 C1            1 RES     
    4002 C1         174.7150  -192.6101   -91.5743 C1            1 RES     
    4003 C1         173.5806  -192.6290   -92.4207 C1            1 RES     
    4004 S2         172.6575  -191.2273   -92.1608 S2            1 RES     
    4005 H3         176.2430  -188.2289   -88.3891 H3            1 RES     
    4006 H3         175.4595  -193.3954   -91.5317 H3            1 RES     
    4007 N4         174.1893  -194.5107   -93.8889 N4            1 RES     
    4008 C1         173.9438  -195.4518   -94.8484 C1            1 RES     
    4009 C1         172.6598  -195.6146   -95.3825 C1            1 RES     
    4010 C1         171.6403  -194.7976   -94.9105 C1            1 RES     
    4011 N4         170.3565  -194.8786   -95.3381 N4            1 RES     
    4012 S2         169.6142  -193.7050   -94.4441 S2            1 RES     
    4013 N4         170.8394  -193.0739   -93.5331 N4            1 RES     
    4014 C1         171.9128  -193.8098   -93.9254 C1            1 RES     
    4015 C1         173.2211  -193.6713   -93.4137 C1            1 RES     
    4016 H5         174.7522  -196.0761   -95.2065 H5            1 RES     
    4017 C0         175.4081  -191.7573   -88.3715 C0            1 RES     
    4018 C0         176.0916  -191.1795   -87.1282 C0            1 RES     
    4019 C0         175.7768  -191.8725   -85.7989 C0            1 RES     
    4020 C0         174.3054  -191.8345   -85.3562 C0            1 RES     
    4021 C0         173.6623  -190.4384   -85.4841 C0            1 RES     
    4022 C0         172.3057  -190.3603   -84.7732 C0            1 RES     
    4023 C0         172.4934  -190.1703   -83.2599 C0            1 RES     
    4024 C0         171.1537  -190.1549   -82.5227 C0            1 RES     
    4025 C0         171.3543  -189.7445   -81.0606 C0            1 RES     
    4026 C0         170.1557  -189.9657   -80.1164 C0            1 RES     
    4027 C0         168.8182  -189.2808   -80.4617 C0            1 RES     
    4028 C0         167.9908  -190.0342   -81.5272 C0            1 RES     
    4029 C0         166.6155  -189.4160   -81.8484 C0            1 RES     
    4030 C0         165.4508  -189.7232   -80.8766 C0            1 RES     
    4031 C0         165.5179  -189.1561   -79.4508 C0            1 RES     
    4032 C0         165.6785  -187.6374   -79.4234 C0            1 RES     
    4033 H6         174.3138  -191.7818   -88.1831 H6            1 RES     
    4034 H6         175.7431  -192.8064   -88.5250 H6            1 RES     
    4035 H6         177.1681  -191.2714   -87.2629 H6            1 RES     
    4036 H6         175.8393  -190.1092   -87.0129 H6            1 RES     
    4037 H6         176.1253  -192.9279   -85.8163 H6            1 RES     
    4038 H6         176.3712  -191.3355   -85.0258 H6            1 RES     
    4039 H6         173.7026  -192.5487   -85.9581 H6            1 RES     
    4040 H6         174.2927  -192.1907   -84.3055 H6            1 RES     
    4041 H6         174.3246  -189.6381   -85.0871 H6            1 RES     
    4042 H6         173.5043  -190.2440   -86.5666 H6            1 RES     
    4043 H6         171.6974  -191.2599   -85.0149 H6            1 RES     
    4044 H6         171.7614  -189.4650   -85.1463 H6            1 RES     
    4045 H6         173.1188  -190.9775   -82.8253 H6            1 RES     
    4046 H6         173.0146  -189.1989   -83.1035 H6            1 RES     
    4047 H6         170.4945  -189.4070   -83.0082 H6            1 RES     
    4048 H6         170.7100  -191.1724   -82.5879 H6            1 RES     
    4049 H6         172.1909  -190.3385   -80.6303 H6            1 RES     
    4050 H6         171.6555  -188.6731   -81.0400 H6            1 RES     
    4051 H6         169.9769  -191.0522   -79.9654 H6            1 RES     
    4052 H6         170.4912  -189.5529   -79.1386 H6            1 RES     
    4053 H6         168.9864  -188.2184   -80.7420 H6            1 RES     
    4054 H6         168.2494  -189.2894   -79.5241 H6            1 RES     
    4055 H6         168.5454  -190.0106   -82.4756 H6            1 RES     
    4056 H6         167.8569  -191.1021   -81.2492 H6            1 RES     
    4057 H6         166.2947  -189.8789   -82.8088 H6            1 RES     
    4058 H6         166.7178  -188.3273   -82.0413 H6            1 RES     
    4059 H6         164.5293  -189.3141   -81.3465 H6            1 RES     
    4060 H6         165.3235  -190.8257   -80.8066 H6            1 RES     
    4061 H6         164.5667  -189.4156   -78.9377 H6            1 RES     
    4062 H6         166.3157  -189.6448   -78.8654 H6            1 RES     
    4063 H6         164.8404  -187.1529   -79.9675 H6            1 RES     
    4064 H6         165.6725  -187.2845   -78.3709 H6            1 RES     
    4065 H6         166.6392  -187.3314   -79.8854 H6            1 RES     
    4066 C0         177.1498  -190.9075   -90.1652 C0            1 RES     
    4067 C0         178.0500  -189.8068   -89.5522 C0            1 RES     
    4068 C0         179.5616  -189.8621   -89.8627 C0            1 RES     
    4069 C0         180.4167  -190.8962   -89.0892 C0            1 RES     
    4070 C0         180.1782  -190.8444   -87.5657 C0            1 RES     
    4071 C0         181.2489  -191.5346   -86.7084 C0            1 RES     
    4072 C0         182.4867  -190.6414   -86.5237 C0            1 RES     
    4073 C0         183.5189  -191.2894   -85.5892 C0            1 RES     
    4074 C0         184.6508  -190.3027   -85.2736 C0            1 RES     
    4075 C0         185.9008  -190.8776   -84.5728 C0            1 RES     
    4076 C0         185.7523  -191.4884   -83.1630 C0            1 RES     
    4077 C0         185.1892  -192.9243   -83.1500 C0            1 RES     
    4078 C0         185.1252  -193.5892   -81.7585 C0            1 RES     
    4079 C0         186.4300  -194.2115   -81.2015 C0            1 RES     
    4080 C0         187.5900  -193.2763   -80.8270 C0            1 RES     
    4081 C0         187.1910  -192.2158   -79.8028 C0            1 RES     
    4082 H6         177.5783  -191.9181   -89.9904 H6            1 RES     
    4083 H6         177.1843  -190.7265   -91.2630 H6            1 RES     
    4084 H6         177.6957  -188.8531   -89.9950 H6            1 RES     
    4085 H6         177.9406  -189.7186   -88.4631 H6            1 RES     
    4086 H6         179.7327  -189.9591   -90.9562 H6            1 RES     
    4087 H6         179.9623  -188.8698   -89.5564 H6            1 RES     
    4088 H6         180.2297  -191.9315   -89.4483 H6            1 RES     
    4089 H6         181.4750  -190.6448   -89.3134 H6            1 RES     
    4090 H6         180.0664  -189.7983   -87.2043 H6            1 RES     
    4091 H6         179.2353  -191.3783   -87.3884 H6            1 RES     
    4092 H6         181.5031  -192.5341   -87.1244 H6            1 RES     
    4093 H6         180.8159  -191.6829   -85.6953 H6            1 RES     
    4094 H6         182.9607  -190.4207   -87.5031 H6            1 RES     
    4095 H6         182.1516  -189.6822   -86.0675 H6            1 RES     
    4096 H6         183.0069  -191.5525   -84.6435 H6            1 RES     
    4097 H6         183.9211  -192.2011   -86.0805 H6            1 RES     
    4098 H6         185.0167  -189.8797   -86.2352 H6            1 RES     
    4099 H6         184.2372  -189.4630   -84.6713 H6            1 RES     
    4100 H6         186.4133  -191.6074   -85.2360 H6            1 RES     
    4101 H6         186.5822  -190.0042   -84.4632 H6            1 RES     
    4102 H6         185.1640  -190.8121   -82.5055 H6            1 RES     
    4103 H6         186.7746  -191.5238   -82.7663 H6            1 RES     
    4104 H6         184.1490  -192.8825   -83.5024 H6            1 RES     
    4105 H6         185.7536  -193.5837   -83.8443 H6            1 RES     
    4106 H6         184.4411  -194.4598   -81.8742 H6            1 RES     
    4107 H6         184.6466  -192.9073   -81.0241 H6            1 RES     
    4108 H6         186.1496  -194.7642   -80.2775 H6            1 RES     
    4109 H6         186.8088  -194.9609   -81.9304 H6            1 RES     
    4110 H6         188.3978  -193.8992   -80.3844 H6            1 RES     
    4111 H6         188.0311  -192.8079   -81.7238 H6            1 RES     
    4112 H6         186.8016  -192.6988   -78.8815 H6            1 RES     
    4113 H6         188.0800  -191.6064   -79.5366 H6            1 RES     
    4114 H6         186.4165  -191.5378   -80.2159 H6            1 RES     
    4115 C0         172.7765  -200.2490   -97.9525 C0            1 RES     
    4116 C1         172.4098  -198.8202   -97.5004 C1            1 RES     
    4117 C1         171.5910  -198.0639   -98.4702 C1            1 RES     
    4118 S2         172.1121  -196.3488   -98.3124 S2            1 RES     
    4119 C1         172.3520  -196.7857   -96.5758 C1            1 RES     
    4120 C1         172.6785  -198.1180   -96.4050 C1            1 RES     
    4121 C1         171.8263  -198.8664   -99.6612 C1            1 RES     
    4122 C1         172.4290  -200.0684   -99.4276 C1            1 RES     
    4123 C1         172.5615  -200.8445  -100.5931 C1            1 RES     
    4124 C1         171.9909  -200.1979  -101.7156 C1            1 RES     
    4125 S2         171.3489  -198.6994  -101.2393 S2            1 RES     
    4126 H3         173.2001  -198.4706   -95.5304 H3            1 RES     
    4127 H3         173.0259  -201.8224  -100.6212 H3            1 RES     
    4128 N4         172.8478  -201.6498  -103.5113 N4            1 RES     
    4129 C1         172.9132  -202.1089  -104.7964 C1            1 RES     
    4130 C1         172.0371  -201.6267  -105.7765 C1            1 RES     
    4131 C1         171.0973  -200.6718  -105.4093 C1            1 RES     
    4132 N4         170.1864  -200.1488  -106.2662 N4            1 RES     
    4133 S2         169.3517  -199.1045  -105.2965 S2            1 RES     
    4134 N4         170.0883  -199.2627  -103.8263 N4            1 RES     
    4135 C1         171.0520  -200.1890  -104.0731 C1            1 RES     
    4136 C1         171.9548  -200.6949  -103.1132 C1            1 RES     
    4137 H5         173.6552  -202.8500  -105.0641 H5            1 RES     
    4138 C0         171.7898  -201.2873   -97.3260 C0            1 RES     
    4139 C0         171.8933  -201.3925   -95.8012 C0            1 RES     
    4140 C0         170.8533  -202.2810   -95.1117 C0            1 RES     
    4141 C0         169.3888  -201.8407   -95.2662 C0            1 RES     
    4142 C0         169.1709  -200.3351   -95.0110 C0            1 RES     
    4143 C0         167.6844  -199.9802   -94.8846 C0            1 RES     
    4144 C0         167.1586  -200.3265   -93.4827 C0            1 RES     
    4145 C0         165.6618  -200.0408   -93.3550 C0            1 RES     
    4146 C0         165.2144  -200.1820   -91.8968 C0            1 RES     
    4147 C0         163.6933  -200.2178   -91.6473 C0            1 RES     
    4148 C0         162.8462  -199.0229   -92.1289 C0            1 RES     
    4149 C0         162.5004  -199.0726   -93.6341 C0            1 RES     
    4150 C0         161.5964  -197.9299   -94.1380 C0            1 RES     
    4151 C0         160.0744  -198.0622   -93.8899 C0            1 RES     
    4152 C0         159.5606  -198.0056   -92.4437 C0            1 RES     
    4153 C0         159.9807  -196.7309   -91.7144 C0            1 RES     
    4154 H6         170.7578  -200.9649   -97.5799 H6            1 RES     
    4155 H6         171.9459  -202.2909   -97.7784 H6            1 RES     
    4156 H6         172.8618  -201.8271   -95.5589 H6            1 RES     
    4157 H6         171.8304  -200.3891   -95.3412 H6            1 RES     
    4158 H6         170.9546  -203.3352   -95.4493 H6            1 RES     
    4159 H6         171.0973  -202.2514   -94.0260 H6            1 RES     
    4160 H6         169.0213  -202.0741   -96.2890 H6            1 RES     
    4161 H6         168.8062  -202.4599   -94.5534 H6            1 RES     
    4162 H6         169.7041  -199.9870   -94.0993 H6            1 RES     
    4163 H6         169.5910  -199.7871   -95.8815 H6            1 RES     
    4164 H6         167.1038  -200.4815   -95.6904 H6            1 RES     
    4165 H6         167.5708  -198.8809   -95.0099 H6            1 RES     
    4166 H6         167.3294  -201.3956   -93.2393 H6            1 RES     
    4167 H6         167.7193  -199.7048   -92.7486 H6            1 RES     
    4168 H6         165.4749  -198.9967   -93.6783 H6            1 RES     
    4169 H6         165.1148  -200.7583   -94.0050 H6            1 RES     
    4170 H6         165.6096  -201.1387   -91.4889 H6            1 RES     
    4171 H6         165.6710  -199.3518   -91.3127 H6            1 RES     
    4172 H6         163.2566  -201.1565   -92.0512 H6            1 RES     
    4173 H6         163.5936  -200.2635   -90.5396 H6            1 RES     
    4174 H6         163.3311  -198.0635   -91.8462 H6            1 RES     
    4175 H6         161.9092  -199.0989   -91.5643 H6            1 RES     
    4176 H6         163.4334  -198.9750   -94.2064 H6            1 RES     
    4177 H6         162.0449  -200.0487   -93.9085 H6            1 RES     
    4178 H6         161.6906  -197.9389   -95.2472 H6            1 RES     
    4179 H6         161.9881  -196.9489   -93.7958 H6            1 RES     
    4180 H6         159.5895  -197.2261   -94.4405 H6            1 RES     
    4181 H6         159.7173  -199.0100   -94.3489 H6            1 RES     
    4182 H6         158.4501  -198.0386   -92.4769 H6            1 RES     
    4183 H6         159.8689  -198.9008   -91.8766 H6            1 RES     
    4184 H6         159.6174  -195.8368   -92.2637 H6            1 RES     
    4185 H6         159.5410  -196.7270   -90.6950 H6            1 RES     
    4186 H6         161.0839  -196.6754   -91.6155 H6            1 RES     
    4187 C0         174.3045  -200.6445   -97.8120 C0            1 RES     
    4188 C0         174.9967  -200.1815   -96.5066 C0            1 RES     
    4189 C0         176.4290  -200.6907   -96.2355 C0            1 RES     
    4190 C0         176.5903  -202.1440   -95.7247 C0            1 RES     
    4191 C0         175.6678  -202.4596   -94.5289 C0            1 RES     
    4192 C0         176.0406  -203.7125   -93.7232 C0            1 RES     
    4193 C0         177.1862  -203.4299   -92.7375 C0            1 RES     
    4194 C0         177.4974  -204.6541   -91.8640 C0            1 RES     
    4195 C0         178.5080  -204.2888   -90.7687 C0            1 RES     
    4196 C0         179.1316  -205.4592   -89.9780 C0            1 RES     
    4197 C0         178.2115  -206.3595   -89.1262 C0            1 RES     
    4198 C0         177.4436  -207.4260   -89.9336 C0            1 RES     
    4199 C0         176.5940  -208.3996   -89.0892 C0            1 RES     
    4200 C0         177.3241  -209.5894   -88.4176 C0            1 RES     
    4201 C0         178.3206  -209.2972   -87.2852 C0            1 RES     
    4202 C0         177.6956  -208.5164   -86.1309 C0            1 RES     
    4203 H6         174.3912  -201.7450   -97.9422 H6            1 RES     
    4204 H6         174.8942  -200.1740   -98.6306 H6            1 RES     
    4205 H6         175.0906  -199.0794   -96.5954 H6            1 RES     
    4206 H6         174.3995  -200.3843   -95.6077 H6            1 RES     
    4207 H6         177.0795  -200.5169   -97.1194 H6            1 RES     
    4208 H6         176.8189  -200.0507   -95.4124 H6            1 RES     
    4209 H6         176.4003  -202.8843   -96.5317 H6            1 RES     
    4210 H6         177.6528  -202.2423   -95.4167 H6            1 RES     
    4211 H6         175.6028  -201.6013   -93.8242 H6            1 RES     
    4212 H6         174.6715  -202.6392   -94.9540 H6            1 RES     
    4213 H6         176.2626  -204.5656   -94.4012 H6            1 RES     
    4214 H6         175.1565  -203.9836   -93.1061 H6            1 RES     
    4215 H6         178.1034  -203.1197   -93.2808 H6            1 RES     
    4216 H6         176.8679  -202.5947   -92.0730 H6            1 RES     
    4217 H6         176.5555  -204.9780   -91.3806 H6            1 RES     
    4218 H6         177.8993  -205.4616   -92.5128 H6            1 RES     
    4219 H6         179.3634  -203.7657   -91.2505 H6            1 RES     
    4220 H6         178.0292  -203.5735   -90.0630 H6            1 RES     
    4221 H6         179.7456  -206.0957   -90.6511 H6            1 RES     
    4222 H6         179.8329  -204.9689   -89.2659 H6            1 RES     
    4223 H6         177.5250  -205.7411   -88.5082 H6            1 RES     
    4224 H6         178.8906  -206.8808   -88.4399 H6            1 RES     
    4225 H6         176.7292  -206.9056   -90.5870 H6            1 RES     
    4226 H6         178.1305  -208.0100   -90.5835 H6            1 RES     
    4227 H6         175.8940  -208.8846   -89.8060 H6            1 RES     
    4228 H6         175.9658  -207.8387   -88.3652 H6            1 RES     
    4229 H6         176.5346  -210.2473   -87.9911 H6            1 RES     
    4230 H6         177.8512  -210.1750   -89.2022 H6            1 RES     
    4231 H6         178.6797  -210.2726   -86.8901 H6            1 RES     
    4232 H6         179.2183  -208.7805   -87.6666 H6            1 RES     
    4233 H6         176.8277  -209.0721   -85.7168 H6            1 RES     
    4234 H6         178.4484  -208.3812   -85.3261 H6            1 RES     
    4235 H6         177.3618  -207.5133   -86.4661 H6            1 RES     
    4236 C0         172.4636  -205.0058  -109.8379 C0            1 RES     
    4237 C1         172.2115  -203.7431  -108.9880 C1            1 RES     
    4238 C1         172.1211  -202.4907  -109.7666 C1            1 RES     
    4239 S2         172.8258  -201.2126  -108.7141 S2            1 RES     
    4240 C1         172.1160  -202.1973  -107.3759 C1            1 RES     
    4241 C1         172.0547  -203.5435  -107.6838 C1            1 RES     
    4242 C1         172.7359  -202.9347  -111.0087 C1            1 RES     
    4243 C1         172.9064  -204.2852  -111.1083 C1            1 RES     
    4244 C1         173.4260  -204.6759  -112.3556 C1            1 RES     
    4245 C1         173.5998  -203.5660  -113.2168 C1            1 RES     
    4246 S2         173.1139  -202.1484  -112.4176 S2            1 RES     
    4247 H3         172.0146  -204.3028  -106.9202 H3            1 RES     
    4248 H3         173.6469  -205.7008  -112.6266 H3            1 RES     
    4249 N4         174.9097  -204.6325  -115.0095 N4            1 RES     
    4250 C1         175.4907  -204.6835  -116.2450 C1            1 RES     
    4251 C1         175.3028  -203.6493  -117.1699 C1            1 RES     
    4252 C1         174.5082  -202.5709  -116.8017 C1            1 RES     
    4253 N4         174.2396  -201.5242  -117.6200 N4            1 RES     
    4254 S2         173.2643  -200.5826  -116.6767 S2            1 RES     
    4255 N4         173.1615  -201.4240  -115.2587 N4            1 RES     
    4256 C1         173.9246  -202.5213  -115.5065 C1            1 RES     
    4257 C1         174.1404  -203.5803  -114.5986 C1            1 RES     
    4258 H5         176.1099  -205.5301  -116.5119 H5            1 RES     
    4259 C0         171.1170  -205.7470  -110.1226 C0            1 RES     
    4260 C0         170.4561  -206.3267  -108.8680 C0            1 RES     
    4261 C0         169.0628  -206.9347  -109.0561 C0            1 RES     
    4262 C0         167.9681  -205.9657  -109.5305 C0            1 RES     
    4263 C0         167.9525  -204.6315  -108.7564 C0            1 RES     
    4264 C0         166.6880  -203.8126  -109.0429 C0            1 RES     
    4265 C0         165.5000  -204.3392  -108.2225 C0            1 RES     
    4266 C0         164.2126  -203.5780  -108.5412 C0            1 RES     
    4267 C0         163.1048  -203.9688  -107.5581 C0            1 RES     
    4268 C0         161.6758  -203.5185  -107.9220 C0            1 RES     
    4269 C0         161.4131  -202.0122  -108.1198 C0            1 RES     
    4270 C0         161.8269  -201.4866  -109.5127 C0            1 RES     
    4271 C0         161.5159  -199.9991  -109.7720 C0            1 RES     
    4272 C0         160.0681  -199.6333  -110.1787 C0            1 RES     
    4273 C0         158.9476  -199.8215  -109.1452 C0            1 RES     
    4274 C0         159.2068  -199.0638  -107.8445 C0            1 RES     
    4275 H6         170.4172  -205.0108  -110.5718 H6            1 RES     
    4276 H6         171.2715  -206.5573  -110.8682 H6            1 RES     
    4277 H6         171.0852  -207.1354  -108.4995 H6            1 RES     
    4278 H6         170.3776  -205.5529  -108.0821 H6            1 RES     
    4279 H6         169.1058  -207.8034  -109.7483 H6            1 RES     
    4280 H6         168.7584  -207.3172  -108.0560 H6            1 RES     
    4281 H6         168.0969  -205.7365  -110.6106 H6            1 RES     
    4282 H6         167.0077  -206.5097  -109.4174 H6            1 RES     
    4283 H6         168.0410  -204.7871  -107.6589 H6            1 RES     
    4284 H6         168.8351  -204.0446  -109.0897 H6            1 RES     
    4285 H6         166.4784  -203.8062  -110.1355 H6            1 RES     
    4286 H6         166.8646  -202.7634  -108.7190 H6            1 RES     
    4287 H6         165.3218  -205.4175  -108.4149 H6            1 RES     
    4288 H6         165.7503  -204.2110  -107.1452 H6            1 RES     
    4289 H6         164.4103  -202.4925  -108.4314 H6            1 RES     
    4290 H6         163.9153  -203.8207  -109.5848 H6            1 RES     
    4291 H6         163.0620  -205.0781  -107.4845 H6            1 RES     
    4292 H6         163.3782  -203.5741  -106.5538 H6            1 RES     
    4293 H6         161.3121  -204.0693  -108.8161 H6            1 RES     
    4294 H6         161.0519  -203.8486  -107.0613 H6            1 RES     
    4295 H6         161.8800  -201.4251  -107.2995 H6            1 RES     
    4296 H6         160.3258  -201.9034  -108.0270 H6            1 RES     
    4297 H6         162.9185  -201.5726  -109.6042 H6            1 RES     
    4298 H6         161.3779  -202.1017  -110.3225 H6            1 RES     
    4299 H6         162.1252  -199.7149  -110.6594 H6            1 RES     
    4300 H6         161.8788  -199.3764  -108.9273 H6            1 RES     
    4301 H6         160.0788  -198.5557  -110.4545 H6            1 RES     
    4302 H6         159.7972  -200.2049  -111.0933 H6            1 RES     
    4303 H6         158.0060  -199.4355  -109.5921 H6            1 RES     
    4304 H6         158.7663  -200.8917  -108.9455 H6            1 RES     
    4305 H6         159.3323  -197.9798  -108.0503 H6            1 RES     
    4306 H6         158.3437  -199.1999  -107.1598 H6            1 RES     
    4307 H6         160.1153  -199.4466  -107.3365 H6            1 RES     
    4308 C0         173.6282  -205.9543  -109.3328 C0            1 RES     
    4309 C0         173.6870  -206.1824  -107.8024 C0            1 RES     
    4310 C0         174.6850  -207.2348  -107.2726 C0            1 RES     
    4311 C0         174.2961  -208.7276  -107.4111 C0            1 RES     
    4312 C0         172.8728  -209.0216  -106.8929 C0            1 RES     
    4313 C0         172.5630  -210.5015  -106.6248 C0            1 RES     
    4314 C0         173.1280  -210.9603  -105.2705 C0            1 RES     
    4315 C0         172.7386  -212.4124  -104.9564 C0            1 RES     
    4316 C0         173.1516  -212.7811  -103.5254 C0            1 RES     
    4317 C0         173.0799  -214.2753  -103.1429 C0            1 RES     
    4318 C0         171.7093  -214.9853  -103.1579 C0            1 RES     
    4319 C0         171.2300  -215.4091  -104.5614 C0            1 RES     
    4320 C0         169.9092  -216.2075  -104.5881 C0            1 RES     
    4321 C0         169.9818  -217.7226  -104.2735 C0            1 RES     
    4322 C0         170.3508  -218.1617  -102.8482 C0            1 RES     
    4323 C0         169.4156  -217.5838  -101.7879 C0            1 RES     
    4324 H6         173.5505  -206.9195  -109.8785 H6            1 RES     
    4325 H6         174.6161  -205.5130  -109.5943 H6            1 RES     
    4326 H6         174.0244  -205.2172  -107.3714 H6            1 RES     
    4327 H6         172.7063  -206.4081  -107.3630 H6            1 RES     
    4328 H6         175.6985  -207.0586  -107.6925 H6            1 RES     
    4329 H6         174.7500  -207.0542  -106.1761 H6            1 RES     
    4330 H6         174.3751  -209.0745  -108.4642 H6            1 RES     
    4331 H6         175.0397  -209.2930  -106.8104 H6            1 RES     
    4332 H6         172.6473  -208.4474  -105.9673 H6            1 RES     
    4333 H6         172.1878  -208.6914  -107.6850 H6            1 RES     
    4334 H6         172.9113  -211.1365  -107.4688 H6            1 RES     
    4335 H6         171.4580  -210.5999  -106.5525 H6            1 RES     
    4336 H6         174.2336  -210.8613  -105.2529 H6            1 RES     
    4337 H6         172.7002  -210.3021  -104.4804 H6            1 RES     
    4338 H6         171.6378  -212.4969  -105.0383 H6            1 RES     
    4339 H6         173.2358  -213.0812  -105.6912 H6            1 RES     
    4340 H6         174.2164  -212.4895  -103.3886 H6            1 RES     
    4341 H6         172.5434  -212.1823  -102.8109 H6            1 RES     
    4342 H6         173.8036  -214.8634  -103.7474 H6            1 RES     
    4343 H6         173.4355  -214.3078  -102.0884 H6            1 RES     
    4344 H6         170.9462  -214.3704  -102.6332 H6            1 RES     
    4345 H6         171.8614  -215.8956  -102.5646 H6            1 RES     
    4346 H6         171.0319  -214.4964  -105.1407 H6            1 RES     
    4347 H6         172.0154  -215.9843  -105.0976 H6            1 RES     
    4348 H6         169.5580  -216.1693  -105.6436 H6            1 RES     
    4349 H6         169.1342  -215.6959  -103.9789 H6            1 RES     
    4350 H6         168.9737  -218.1409  -104.4895 H6            1 RES     
    4351 H6         170.6944  -218.2012  -104.9804 H6            1 RES     
    4352 H6         170.2795  -219.2706  -102.8063 H6            1 RES     
    4353 H6         171.4026  -217.9208  -102.6157 H6            1 RES     
    4354 H6         168.3661  -217.8796  -101.9991 H6            1 RES     
    4355 H6         169.7019  -217.9761  -100.7896 H6            1 RES     
    4356 H6         169.4852  -216.4772  -101.7591 H6            1 RES     
    4357 C0         176.9521  -205.5937  -121.8169 C0            1 RES     
    4358 C1         176.5756  -204.6366  -120.6669 C1            1 RES     
    4359 C1         177.1142  -203.2683  -120.8098 C1            1 RES     
    4360 S2         177.4633  -202.7066  -119.1363 S2            1 RES     
    4361 C1         176.0240  -203.7111  -118.7081 C1            1 RES     
    4362 C1         175.8566  -204.7871  -119.5597 C1            1 RES     
    4363 C1         178.1481  -203.5192  -121.8027 C1            1 RES     
    4364 C1         178.0789  -204.7449  -122.3992 C1            1 RES     
    4365 C1         179.0443  -204.9124  -123.4083 C1            1 RES     
    4366 C1         179.8209  -203.7421  -123.5840 C1            1 RES     
    4367 S2         179.2986  -202.5479  -122.4951 S2            1 RES     
    4368 H3         175.3094  -205.6679  -119.2664 H3            1 RES     
    4369 H3         179.1635  -205.8185  -123.9893 H3            1 RES     
    4370 N4         181.5922  -204.6344  -125.0445 N4            1 RES     
    4371 C1         182.6705  -204.5278  -125.8765 C1            1 RES     
    4372 C1         183.1531  -203.2735  -126.2692 C1            1 RES     
    4373 C1         182.5064  -202.1394  -125.7943 C1            1 RES     
    4374 N4         182.8714  -200.8760  -126.1229 N4            1 RES     
    4375 S2         181.7683  -199.9660  -125.2965 S2            1 RES     
    4376 N4         180.8386  -201.0891  -124.5196 N4            1 RES     
    4377 C1         181.3970  -202.2638  -124.9144 C1            1 RES     
    4378 C1         180.9417  -203.5453  -124.5362 C1            1 RES     
    4379 H5         183.1637  -205.4231  -126.2326 H5            1 RES     
    4380 C0         175.7905  -205.6729  -122.8603 C0            1 RES     
    4381 C0         174.5119  -206.3130  -122.3105 C0            1 RES     
    4382 C0         173.2901  -206.2859  -123.2342 C0            1 RES     
    4383 C0         172.7679  -204.8908  -123.6127 C0            1 RES     
    4384 C0         172.6442  -203.9346  -122.4087 C0            1 RES     
    4385 C0         171.8575  -202.6654  -122.7577 C0            1 RES     
    4386 C0         170.3454  -202.9384  -122.7371 C0            1 RES     
    4387 C0         169.5433  -201.7023  -123.1458 C0            1 RES     
    4388 C0         168.0484  -201.9323  -122.9034 C0            1 RES     
    4389 C0         167.0861  -200.9059  -123.5338 C0            1 RES     
    4390 C0         167.2489  -199.4213  -123.1507 C0            1 RES     
    4391 C0         168.3715  -198.6982  -123.9281 C0            1 RES     
    4392 C0         168.5188  -197.1945  -123.6214 C0            1 RES     
    4393 C0         167.5444  -196.2231  -124.3303 C0            1 RES     
    4394 C0         166.0540  -196.2846  -123.9643 C0            1 RES     
    4395 C0         165.8017  -196.0929  -122.4701 C0            1 RES     
    4396 H6         175.5493  -204.6349  -123.1732 H6            1 RES     
    4397 H6         176.1217  -206.2255  -123.7665 H6            1 RES     
    4398 H6         174.7171  -207.3653  -122.1211 H6            1 RES     
    4399 H6         174.2195  -205.8323  -121.3587 H6            1 RES     
    4400 H6         173.4888  -206.8651  -124.1619 H6            1 RES     
    4401 H6         172.4768  -206.8071  -122.6808 H6            1 RES     
    4402 H6         173.4392  -204.4174  -124.3617 H6            1 RES     
    4403 H6         171.7855  -205.0540  -124.1018 H6            1 RES     
    4404 H6         172.1651  -204.4275  -121.5345 H6            1 RES     
    4405 H6         173.6737  -203.6404  -122.1119 H6            1 RES     
    4406 H6         172.2017  -202.2615  -123.7356 H6            1 RES     
    4407 H6         172.0582  -201.8986  -121.9776 H6            1 RES     
    4408 H6         170.0748  -203.7690  -123.4215 H6            1 RES     
    4409 H6         170.0696  -203.2337  -121.6996 H6            1 RES     
    4410 H6         169.8714  -200.8480  -122.5197 H6            1 RES     
    4411 H6         169.7403  -201.5008  -124.2215 H6            1 RES     
    4412 H6         167.7606  -202.9182  -123.3314 H6            1 RES     
    4413 H6         167.8793  -201.9793  -121.8041 H6            1 RES     
    4414 H6         167.0949  -200.9963  -124.6415 H6            1 RES     
    4415 H6         166.0761  -201.2231  -123.1902 H6            1 RES     
    4416 H6         167.3709  -199.3147  -122.0511 H6            1 RES     
    4417 H6         166.2945  -198.9557  -123.4243 H6            1 RES     
    4418 H6         169.3335  -199.1457  -123.6421 H6            1 RES     
    4419 H6         168.2545  -198.8391  -125.0245 H6            1 RES     
    4420 H6         169.5202  -196.9046  -124.0121 H6            1 RES     
    4421 H6         168.5469  -197.0257  -122.5243 H6            1 RES     
    4422 H6         167.8951  -195.1941  -124.0948 H6            1 RES     
    4423 H6         167.6383  -196.3598  -125.4299 H6            1 RES     
    4424 H6         165.5363  -195.4683  -124.5130 H6            1 RES     
    4425 H6         165.5949  -197.2223  -124.3218 H6            1 RES     
    4426 H6         166.2185  -195.1207  -122.1320 H6            1 RES     
    4427 H6         164.7085  -196.0996  -122.2765 H6            1 RES     
    4428 H6         166.2623  -196.9122  -121.8815 H6            1 RES     
    4429 C0         177.5234  -207.0053  -121.3787 C0            1 RES     
    4430 C0         176.7977  -207.6788  -120.1881 C0            1 RES     
    4431 C0         177.1943  -209.1286  -119.8345 C0            1 RES     
    4432 C0         176.6368  -210.2642  -120.7280 C0            1 RES     
    4433 C0         175.1128  -210.1569  -120.9441 C0            1 RES     
    4434 C0         174.4313  -211.4298  -121.4668 C0            1 RES     
    4435 C0         174.1784  -212.4400  -120.3356 C0            1 RES     
    4436 C0         173.4121  -213.6727  -120.8374 C0            1 RES     
    4437 C0         173.0099  -214.5705  -119.6598 C0            1 RES     
    4438 C0         172.4747  -215.9765  -120.0070 C0            1 RES     
    4439 C0         171.1699  -216.0988  -120.8226 C0            1 RES     
    4440 C0         171.3478  -215.8850  -122.3397 C0            1 RES     
    4441 C0         170.0739  -216.1001  -123.1845 C0            1 RES     
    4442 C0         169.6908  -217.5574  -123.5442 C0            1 RES     
    4443 C0         169.2400  -218.4995  -122.4174 C0            1 RES     
    4444 C0         168.0446  -217.9598  -121.6347 C0            1 RES     
    4445 H6         177.5298  -207.6687  -122.2704 H6            1 RES     
    4446 H6         178.5804  -206.8992  -121.0462 H6            1 RES     
    4447 H6         177.0685  -207.0763  -119.2964 H6            1 RES     
    4448 H6         175.7037  -207.6494  -120.2787 H6            1 RES     
    4449 H6         178.2974  -209.2193  -119.7369 H6            1 RES     
    4450 H6         176.7609  -209.3156  -118.8264 H6            1 RES     
    4451 H6         177.1404  -210.2894  -121.7187 H6            1 RES     
    4452 H6         176.8765  -211.2119  -120.2009 H6            1 RES     
    4453 H6         174.5890  -209.8399  -120.0154 H6            1 RES     
    4454 H6         174.9691  -209.3820  -121.7086 H6            1 RES     
    4455 H6         175.0094  -211.8692  -122.3090 H6            1 RES     
    4456 H6         173.4312  -211.1346  -121.8521 H6            1 RES     
    4457 H6         175.1362  -212.7613  -119.8753 H6            1 RES     
    4458 H6         173.5624  -211.9350  -119.5570 H6            1 RES     
    4459 H6         172.4919  -213.3214  -121.3430 H6            1 RES     
    4460 H6         174.0590  -214.2287  -121.5493 H6            1 RES     
    4461 H6         173.9132  -214.7420  -119.0337 H6            1 RES     
    4462 H6         172.2639  -214.0299  -119.0351 H6            1 RES     
    4463 H6         173.2691  -216.5822  -120.4940 H6            1 RES     
    4464 H6         172.2688  -216.4455  -119.0186 H6            1 RES     
    4465 H6         170.3851  -215.4317  -120.4045 H6            1 RES     
    4466 H6         170.8392  -217.1331  -120.6646 H6            1 RES     
    4467 H6         171.6328  -214.8360  -122.5020 H6            1 RES     
    4468 H6         172.1649  -216.5219  -122.7423 H6            1 RES     
    4469 H6         170.2852  -215.6274  -124.1699 H6            1 RES     
    4470 H6         169.2185  -215.5447  -122.7450 H6            1 RES     
    4471 H6         168.8493  -217.4953  -124.2693 H6            1 RES     
    4472 H6         170.5459  -218.0321  -124.0733 H6            1 RES     
    4473 H6         168.9431  -219.4652  -122.8819 H6            1 RES     
    4474 H6         170.0765  -218.7392  -121.7384 H6            1 RES     
    4475 H6         167.1890  -217.7758  -122.3188 H6            1 RES     
    4476 H6         167.7361  -218.7048  -120.8715 H6            1 RES     
    4477 H6         168.3058  -217.0164  -121.1134 H6            1 RES     
    4478 C0         186.4089  -204.2249  -130.3424 C0            1 RES     
    4479 C1         185.7230  -203.5807  -129.1197 C1            1 RES     
    4480 C1         186.5189  -202.5267  -128.4575 C1            1 RES     
    4481 S2         186.1271  -202.6508  -126.7057 S2            1 RES     
    4482 C1         184.4942  -203.1386  -127.3053 C1            1 RES     
    4483 C1         184.5486  -203.7770  -128.5301 C1            1 RES     
    4484 C1         187.8303  -202.8335  -129.0090 C1            1 RES     
    4485 C1         187.8176  -203.7151  -130.0507 C1            1 RES     
    4486 C1         189.0943  -203.9184  -130.6050 C1            1 RES     
    4487 C1         190.0712  -203.1166  -129.9676 C1            1 RES     
    4488 S2         189.3357  -202.1918  -128.7476 S2            1 RES     
    4489 H3         183.7682  -204.4416  -128.8630 H3            1 RES     
    4490 H3         189.2978  -204.5911  -131.4289 H3            1 RES     
    4491 N4         192.1128  -204.1214  -130.9104 N4            1 RES     
    4492 C1         193.4549  -204.1759  -131.1599 C1            1 RES     
    4493 C1         194.3002  -203.1287  -130.7736 C1            1 RES     
    4494 C1         193.7400  -202.0308  -130.1327 C1            1 RES     
    4495 N4         194.4556  -200.9514  -129.7324 N4            1 RES     
    4496 S2         193.2929  -199.9883  -129.0628 S2            1 RES     
    4497 N4         191.9066  -200.8696  -129.2384 N4            1 RES     
    4498 C1         192.3449  -201.9947  -129.8625 C1            1 RES     
    4499 C1         191.5247  -203.0716  -130.2625 C1            1 RES     
    4500 H5         193.8733  -205.0418  -131.6566 H5            1 RES     
    4501 C0         185.8975  -203.5636  -131.6634 C0            1 RES     
    4502 C0         184.4149  -203.8240  -131.9483 C0            1 RES     
    4503 C0         183.8154  -203.0821  -133.1469 C0            1 RES     
    4504 C0         183.8207  -201.5479  -133.0554 C0            1 RES     
    4505 C0         183.3252  -201.0127  -131.6963 C0            1 RES     
    4506 C0         183.0654  -199.5018  -131.7306 C0            1 RES     
    4507 C0         181.7073  -199.1968  -132.3819 C0            1 RES     
    4508 C0         181.4563  -197.6919  -132.4854 C0            1 RES     
    4509 C0         180.0153  -197.4208  -132.9285 C0            1 RES     
    4510 C0         179.6924  -195.9773  -133.3634 C0            1 RES     
    4511 C0         179.9376  -194.8384  -132.3535 C0            1 RES     
    4512 C0         181.4115  -194.3806  -132.2786 C0            1 RES     
    4513 C0         181.6837  -193.1966  -131.3295 C0            1 RES     
    4514 C0         181.3771  -191.7743  -131.8572 C0            1 RES     
    4515 C0         179.9138  -191.3922  -132.1245 C0            1 RES     
    4516 C0         179.0206  -191.5708  -130.8983 C0            1 RES     
    4517 H6         186.0425  -202.4667  -131.5675 H6            1 RES     
    4518 H6         186.5068  -203.9057  -132.5283 H6            1 RES     
    4519 H6         184.2952  -204.8841  -132.1656 H6            1 RES     
    4520 H6         183.8031  -203.5729  -131.0622 H6            1 RES     
    4521 H6         184.3163  -203.3930  -134.0892 H6            1 RES     
    4522 H6         182.7528  -203.4084  -133.2082 H6            1 RES     
    4523 H6         184.8459  -201.1543  -133.2283 H6            1 RES     
    4524 H6         183.1813  -201.1894  -133.8883 H6            1 RES     
    4525 H6         182.4010  -201.5304  -131.3581 H6            1 RES     
    4526 H6         184.1223  -201.2160  -130.9494 H6            1 RES     
    4527 H6         183.9063  -198.9828  -132.2419 H6            1 RES     
    4528 H6         183.0136  -199.1274  -130.6846 H6            1 RES     
    4529 H6         181.6411  -199.6302  -133.4014 H6            1 RES     
    4530 H6         180.9176  -199.6624  -131.7500 H6            1 RES     
    4531 H6         181.6043  -197.2416  -131.4830 H6            1 RES     
    4532 H6         182.1786  -197.2693  -133.2177 H6            1 RES     
    4533 H6         179.7816  -198.0604  -133.8083 H6            1 RES     
    4534 H6         179.3358  -197.7242  -132.1007 H6            1 RES     
    4535 H6         180.2119  -195.7343  -134.3154 H6            1 RES     
    4536 H6         178.6012  -195.9899  -133.5830 H6            1 RES     
    4537 H6         179.5371  -195.1125  -131.3536 H6            1 RES     
    4538 H6         179.3417  -193.9981  -132.7295 H6            1 RES     
    4539 H6         182.0116  -195.2113  -131.8818 H6            1 RES     
    4540 H6         181.8080  -194.1396  -133.2887 H6            1 RES     
    4541 H6         182.7846  -193.1912  -131.1636 H6            1 RES     
    4542 H6         181.2162  -193.3808  -130.3393 H6            1 RES     
    4543 H6         181.7653  -191.0628  -131.0953 H6            1 RES     
    4544 H6         181.9567  -191.6056  -132.7911 H6            1 RES     
    4545 H6         179.8916  -190.3207  -132.4192 H6            1 RES     
    4546 H6         179.5089  -191.9476  -132.9880 H6            1 RES     
    4547 H6         179.4052  -190.9638  -130.0516 H6            1 RES     
    4548 H6         177.9905  -191.2346  -131.1399 H6            1 RES     
    4549 H6         178.9742  -192.6358  -130.5927 H6            1 RES     
    4550 C0         186.4139  -205.8091  -130.3735 C0            1 RES     
    4551 C0         185.0921  -206.4896  -129.9405 C0            1 RES     
    4552 C0         184.9805  -208.0189  -130.1218 C0            1 RES     
    4553 C0         184.7092  -208.5554  -131.5492 C0            1 RES     
    4554 C0         183.5282  -207.8406  -132.2384 C0            1 RES     
    4555 C0         182.9465  -208.5621  -133.4627 C0            1 RES     
    4556 C0         181.9925  -209.6951  -133.0500 C0            1 RES     
    4557 C0         181.3361  -210.3563  -134.2709 C0            1 RES     
    4558 C0         180.2539  -211.3491  -133.8263 C0            1 RES     
    4559 C0         179.6878  -212.2933  -134.9089 C0            1 RES     
    4560 C0         178.9364  -211.6849  -136.1121 C0            1 RES     
    4561 C0         179.8558  -211.1144  -137.2113 C0            1 RES     
    4562 C0         179.1267  -210.5905  -138.4671 C0            1 RES     
    4563 C0         178.6869  -211.6319  -139.5264 C0            1 RES     
    4564 C0         177.5787  -212.6311  -139.1605 C0            1 RES     
    4565 C0         176.2857  -211.9485  -138.7188 C0            1 RES     
    4566 H6         186.7166  -206.1349  -131.3922 H6            1 RES     
    4567 H6         187.1809  -206.1993  -129.6674 H6            1 RES     
    4568 H6         185.0150  -206.3189  -128.8468 H6            1 RES     
    4569 H6         184.2042  -206.0376  -130.4022 H6            1 RES     
    4570 H6         185.8609  -208.5305  -129.6771 H6            1 RES     
    4571 H6         184.0910  -208.3227  -129.5256 H6            1 RES     
    4572 H6         185.6092  -208.4698  -132.1959 H6            1 RES     
    4573 H6         184.4779  -209.6351  -131.4299 H6            1 RES     
    4574 H6         182.6972  -207.6428  -131.5258 H6            1 RES     
    4575 H6         183.9214  -206.8786  -132.5928 H6            1 RES     
    4576 H6         183.7588  -208.9134  -134.1361 H6            1 RES     
    4577 H6         182.3316  -207.8228  -134.0206 H6            1 RES     
    4578 H6         182.5303  -210.4640  -132.4567 H6            1 RES     
    4579 H6         181.1910  -209.2534  -132.4151 H6            1 RES     
    4580 H6         180.8581  -209.5612  -134.8752 H6            1 RES     
    4581 H6         182.1223  -210.8739  -134.8612 H6            1 RES     
    4582 H6         180.6948  -212.0146  -133.0517 H6            1 RES     
    4583 H6         179.4216  -210.7832  -133.3509 H6            1 RES     
    4584 H6         180.4832  -212.9749  -135.2804 H6            1 RES     
    4585 H6         178.9477  -212.9234  -134.3662 H6            1 RES     
    4586 H6         178.1943  -210.9322  -135.7679 H6            1 RES     
    4587 H6         178.3764  -212.5241  -136.5433 H6            1 RES     
    4588 H6         180.3816  -210.2441  -136.7940 H6            1 RES     
    4589 H6         180.6241  -211.8566  -137.5181 H6            1 RES     
    4590 H6         179.8708  -209.9601  -139.0037 H6            1 RES     
    4591 H6         178.2921  -209.9171  -138.1786 H6            1 RES     
    4592 H6         178.3249  -211.0563  -140.4070 H6            1 RES     
    4593 H6         179.5798  -212.2076  -139.8547 H6            1 RES     
    4594 H6         177.3585  -213.2388  -140.0652 H6            1 RES     
    4595 H6         177.9238  -213.3481  -138.3955 H6            1 RES     
    4596 H6         175.9158  -211.2722  -139.5185 H6            1 RES     
    4597 H6         175.5117  -212.7185  -138.5176 H6            1 RES     
    4598 H6         176.4438  -211.3641  -137.7895 H6            1 RES     
    4599 C0         198.8508  -203.9584  -133.3619 C0            1 RES     
    4600 C1         197.8041  -203.4990  -132.3255 C1            1 RES     
    4601 C1         198.3744  -203.0536  -131.0374 C1            1 RES     
    4602 S2         197.1772  -203.5359  -129.7837 S2            1 RES     
    4603 C1         195.9703  -203.1941  -131.0839 C1            1 RES     
    4604 C1         196.4782  -203.4172  -132.3501 C1            1 RES     
    4605 C1         199.7015  -203.6410  -131.1460 C1            1 RES     
    4606 C1         200.0171  -204.1083  -132.3889 C1            1 RES     
    4607 C1         201.3359  -204.5907  -132.4684 C1            1 RES     
    4608 C1         202.0240  -204.4268  -131.2423 C1            1 RES     
    4609 S2         200.9908  -203.7008  -130.1066 S2            1 RES     
    4610 H3         195.8397  -203.6213  -133.1938 H3            1 RES     
    4611 H3         201.7731  -205.0166  -133.3629 H3            1 RES     
    4612 N4         204.0277  -205.7820  -131.7061 N4            1 RES     
    4613 C1         205.2859  -206.2468  -131.4461 C1            1 RES     
    4614 C1         206.0289  -205.7441  -130.3711 C1            1 RES     
    4615 C1         205.4565  -204.7586  -129.5767 C1            1 RES     
    4616 N4         206.0881  -204.1844  -128.5237 N4            1 RES     
    4617 S2         204.9596  -203.1065  -127.9830 S2            1 RES     
    4618 N4         203.6847  -203.3270  -129.0103 N4            1 RES     
    4619 C1         204.1395  -204.2970  -129.8469 C1            1 RES     
    4620 C1         203.4186  -204.8309  -130.9367 C1            1 RES     
    4621 H5         205.7131  -207.0180  -132.0739 H5            1 RES     
    4622 C0         199.1731  -202.7987  -134.3595 C0            1 RES     
    4623 C0         197.9888  -202.4036  -135.2474 C0            1 RES     
    4624 C0         198.1928  -201.1766  -136.1415 C0            1 RES     
    4625 C0         198.4523  -199.8504  -135.4092 C0            1 RES     
    4626 C0         197.4822  -199.5970  -134.2370 C0            1 RES     
    4627 C0         197.5703  -198.1576  -133.7156 C0            1 RES     
    4628 C0         196.7778  -197.2007  -134.6200 C0            1 RES     
    4629 C0         196.9053  -195.7495  -134.1552 C0            1 RES     
    4630 C0         195.9357  -194.8535  -134.9320 C0            1 RES     
    4631 C0         196.1480  -193.3327  -134.7938 C0            1 RES     
    4632 C0         196.0969  -192.7136  -133.3827 C0            1 RES     
    4633 C0         197.4126  -192.8695  -132.5875 C0            1 RES     
    4634 C0         197.4224  -192.2025  -131.1975 C0            1 RES     
    4635 C0         197.6890  -190.6791  -131.1392 C0            1 RES     
    4636 C0         196.6378  -189.7287  -131.7314 C0            1 RES     
    4637 C0         195.2519  -189.9213  -131.1190 C0            1 RES     
    4638 H6         199.4649  -201.9110  -133.7592 H6            1 RES     
    4639 H6         200.0418  -203.0687  -134.9988 H6            1 RES     
    4640 H6         197.7839  -203.2322  -135.9232 H6            1 RES     
    4641 H6         197.0900  -202.2193  -134.6303 H6            1 RES     
    4642 H6         199.0118  -201.3566  -136.8711 H6            1 RES     
    4643 H6         197.2485  -201.0589  -136.7192 H6            1 RES     
    4644 H6         199.4896  -199.8262  -135.0102 H6            1 RES     
    4645 H6         198.3726  -199.0552  -136.1788 H6            1 RES     
    4646 H6         196.4282  -199.8164  -134.5153 H6            1 RES     
    4647 H6         197.7683  -200.2875  -133.4148 H6            1 RES     
    4648 H6         198.6359  -197.8557  -133.6103 H6            1 RES     
    4649 H6         197.0986  -198.1160  -132.7092 H6            1 RES     
    4650 H6         197.1241  -197.2592  -135.6727 H6            1 RES     
    4651 H6         195.7087  -197.5097  -134.5840 H6            1 RES     
    4652 H6         196.6404  -195.7009  -133.0795 H6            1 RES     
    4653 H6         197.9562  -195.4243  -134.3172 H6            1 RES     
    4654 H6         196.0317  -195.0741  -136.0183 H6            1 RES     
    4655 H6         194.8989  -195.1171  -134.6244 H6            1 RES     
    4656 H6         197.0954  -193.0274  -135.2883 H6            1 RES     
    4657 H6         195.3160  -192.8808  -135.3791 H6            1 RES     
    4658 H6         195.2225  -193.1039  -132.8184 H6            1 RES     
    4659 H6         195.9299  -191.6432  -133.5528 H6            1 RES     
    4660 H6         197.5751  -193.9390  -132.3945 H6            1 RES     
    4661 H6         198.2820  -192.5039  -133.1758 H6            1 RES     
    4662 H6         198.2870  -192.6485  -130.6562 H6            1 RES     
    4663 H6         196.5127  -192.4860  -130.6274 H6            1 RES     
    4664 H6         197.7956  -190.4167  -130.0635 H6            1 RES     
    4665 H6         198.6647  -190.4667  -131.6286 H6            1 RES     
    4666 H6         196.9683  -188.6875  -131.5262 H6            1 RES     
    4667 H6         196.5958  -189.8172  -132.8307 H6            1 RES     
    4668 H6         195.2946  -189.7749  -130.0189 H6            1 RES     
    4669 H6         194.5506  -189.1772  -131.5514 H6            1 RES     
    4670 H6         194.8587  -190.9349  -131.3374 H6            1 RES     
    4671 C0         198.5616  -205.3503  -134.0618 C0            1 RES     
    4672 C0         197.0900  -205.5961  -134.4762 C0            1 RES     
    4673 C0         196.7835  -206.8528  -135.3195 C0            1 RES     
    4674 C0         197.1291  -206.8073  -136.8286 C0            1 RES     
    4675 C0         196.5862  -205.5419  -137.5249 C0            1 RES     
    4676 C0         196.5329  -205.6064  -139.0581 C0            1 RES     
    4677 C0         195.2980  -206.3802  -139.5482 C0            1 RES     
    4678 C0         195.1908  -206.3652  -141.0802 C0            1 RES     
    4679 C0         193.8581  -206.9778  -141.5308 C0            1 RES     
    4680 C0         193.7071  -207.2864  -143.0361 C0            1 RES     
    4681 C0         193.7572  -206.1205  -144.0464 C0            1 RES     
    4682 C0         195.1812  -205.6286  -144.3771 C0            1 RES     
    4683 C0         195.2591  -204.5301  -145.4588 C0            1 RES     
    4684 C0         195.1862  -204.9774  -146.9402 C0            1 RES     
    4685 C0         193.8676  -205.5631  -147.4682 C0            1 RES     
    4686 C0         192.6819  -204.6182  -147.2833 C0            1 RES     
    4687 H6         199.2444  -205.4486  -134.9333 H6            1 RES     
    4688 H6         198.8050  -206.1827  -133.3640 H6            1 RES     
    4689 H6         196.5343  -205.7392  -133.5264 H6            1 RES     
    4690 H6         196.6383  -204.7369  -134.9894 H6            1 RES     
    4691 H6         197.2253  -207.7569  -134.8485 H6            1 RES     
    4692 H6         195.6774  -206.9718  -135.2804 H6            1 RES     
    4693 H6         198.2257  -206.8699  -136.9987 H6            1 RES     
    4694 H6         196.6638  -207.7116  -137.2749 H6            1 RES     
    4695 H6         195.5723  -205.2737  -137.1541 H6            1 RES     
    4696 H6         197.2797  -204.7315  -137.2642 H6            1 RES     
    4697 H6         197.4822  -206.0149  -139.4688 H6            1 RES     
    4698 H6         196.4169  -204.5647  -139.4288 H6            1 RES     
    4699 H6         195.3252  -207.4304  -139.1891 H6            1 RES     
    4700 H6         194.3939  -205.8845  -139.1269 H6            1 RES     
    4701 H6         195.2251  -205.3106  -141.4154 H6            1 RES     
    4702 H6         196.0456  -206.9356  -141.5025 H6            1 RES     
    4703 H6         193.7359  -207.9547  -141.0129 H6            1 RES     
    4704 H6         193.0281  -206.3142  -141.1998 H6            1 RES     
    4705 H6         194.4332  -208.0694  -143.3441 H6            1 RES     
    4706 H6         192.6910  -207.7324  -143.1260 H6            1 RES     
    4707 H6         193.1035  -205.2862  -143.7113 H6            1 RES     
    4708 H6         193.3204  -206.5303  -144.9657 H6            1 RES     
    4709 H6         195.6014  -205.1748  -143.4686 H6            1 RES     
    4710 H6         195.8414  -206.4744  -144.6672 H6            1 RES     
    4711 H6         196.2756  -204.0869  -145.3622 H6            1 RES     
    4712 H6         194.5374  -203.7156  -145.2373 H6            1 RES     
    4713 H6         195.4092  -204.0776  -147.5554 H6            1 RES     
    4714 H6         195.9958  -205.7152  -147.1316 H6            1 RES     
    4715 H6         193.9932  -205.7531  -148.5565 H6            1 RES     
    4716 H6         193.6579  -206.5475  -147.0152 H6            1 RES     
    4717 H6         192.8791  -203.6505  -147.7915 H6            1 RES     
    4718 H6         191.7729  -205.0749  -147.7279 H6            1 RES     
    4719 H6         192.4867  -204.4334  -146.2073 H6            1 RES     
    4720 C0         211.0023  -207.3762  -131.2061 C0            1 RES     
    4721 C1         209.6999  -206.8935  -130.5345 C1            1 RES     
    4722 C1         209.6592  -207.0875  -129.0705 C1            1 RES     
    4723 S2         207.9405  -207.4455  -128.6757 S2            1 RES     
    4724 C1         207.5950  -206.3202  -130.0463 C1            1 RES     
    4725 C1         208.5919  -206.3300  -131.0038 C1            1 RES     
    4726 C1         210.7334  -208.0588  -128.9266 C1            1 RES     
    4727 C1         211.5069  -208.2208  -130.0393 C1            1 RES     
    4728 C1         212.5806  -209.1050  -129.8297 C1            1 RES     
    4729 C1         212.6155  -209.5724  -128.4940 C1            1 RES     
    4730 S2         211.3290  -208.8883  -127.6215 S2            1 RES     
    4731 H3         208.4087  -206.0287  -132.0221 H3            1 RES     
    4732 H3         213.2998  -209.3774  -130.5920 H3            1 RES     
    4733 N4         214.2897  -211.3643  -128.7248 N4            1 RES     
    4734 C1         215.1524  -212.3106  -128.2488 C1            1 RES     
    4735 C1         215.3727  -212.4544  -126.8736 C1            1 RES     
    4736 C1         214.6945  -211.6088  -126.0046 C1            1 RES     
    4737 N4         214.8438  -211.6423  -124.6578 N4            1 RES     
    4738 S2         213.8286  -210.4375  -124.1623 S2            1 RES     
    4739 N4         213.1849  -209.8644  -125.5717 N4            1 RES     
    4740 C1         213.7855  -210.6408  -126.5119 C1            1 RES     
    4741 C1         213.5853  -210.5284  -127.9046 C1            1 RES     
    4742 H5         215.6684  -212.9629  -128.9414 H5            1 RES     
    4743 C0         211.9811  -206.1759  -131.4192 C0            1 RES     
    4744 C0         211.4682  -205.1332  -132.4175 C0            1 RES     
    4745 C0         212.3092  -203.8608  -132.5595 C0            1 RES     
    4746 C0         212.4395  -202.9998  -131.2930 C0            1 RES     
    4747 C0         211.0976  -202.7669  -130.5688 C0            1 RES     
    4748 C0         211.2039  -201.6813  -129.4911 C0            1 RES     
    4749 C0         211.1438  -200.2806  -130.1204 C0            1 RES     
    4750 C0         211.3132  -199.1823  -129.0700 C0            1 RES     
    4751 C0         211.0286  -197.8083  -129.6844 C0            1 RES     
    4752 C0         211.4405  -196.5833  -128.8436 C0            1 RES     
    4753 C0         210.8425  -196.4333  -127.4304 C0            1 RES     
    4754 C0         211.5588  -197.2854  -126.3587 C0            1 RES     
    4755 C0         211.0325  -197.1091  -124.9204 C0            1 RES     
    4756 C0         211.5295  -195.8780  -124.1248 C0            1 RES     
    4757 C0         211.0973  -194.4806  -124.5930 C0            1 RES     
    4758 C0         209.5800  -194.3250  -124.6741 C0            1 RES     
    4759 H6         212.1168  -205.6752  -130.4372 H6            1 RES     
    4760 H6         212.9782  -206.5433  -131.7464 H6            1 RES     
    4761 H6         211.4545  -205.5912  -133.4052 H6            1 RES     
    4762 H6         210.4393  -204.8240  -132.1563 H6            1 RES     
    4763 H6         213.3244  -204.1040  -132.9411 H6            1 RES     
    4764 H6         211.7996  -203.2420  -133.3319 H6            1 RES     
    4765 H6         213.1418  -203.4746  -130.5739 H6            1 RES     
    4766 H6         212.8940  -202.0418  -131.6195 H6            1 RES     
    4767 H6         210.2852  -202.4940  -131.2774 H6            1 RES     
    4768 H6         210.8151  -203.7233  -130.0787 H6            1 RES     
    4769 H6         212.1250  -201.8347  -128.8862 H6            1 RES     
    4770 H6         210.3269  -201.7687  -128.8126 H6            1 RES     
    4771 H6         211.9323  -200.1487  -130.8900 H6            1 RES     
    4772 H6         210.1508  -200.1738  -130.6126 H6            1 RES     
    4773 H6         210.5816  -199.3593  -128.2558 H6            1 RES     
    4774 H6         212.3541  -199.2310  -128.6817 H6            1 RES     
    4775 H6         211.5872  -197.7183  -130.6424 H6            1 RES     
    4776 H6         209.9422  -197.7531  -129.9207 H6            1 RES     
    4777 H6         212.5477  -196.5139  -128.7768 H6            1 RES     
    4778 H6         211.0956  -195.7081  -129.4388 H6            1 RES     
    4779 H6         209.7478  -196.6249  -127.4491 H6            1 RES     
    4780 H6         210.9891  -195.3768  -127.1755 H6            1 RES     
    4781 H6         211.3976  -198.3461  -126.5961 H6            1 RES     
    4782 H6         212.6559  -197.1067  -126.3723 H6            1 RES     
    4783 H6         211.4275  -197.9780  -124.3472 H6            1 RES     
    4784 H6         209.9257  -197.1952  -124.9016 H6            1 RES     
    4785 H6         211.1576  -196.0020  -123.0838 H6            1 RES     
    4786 H6         212.6405  -195.9026  -124.0831 H6            1 RES     
    4787 H6         211.4849  -193.7420  -123.8583 H6            1 RES     
    4788 H6         211.5697  -194.2198  -125.5557 H6            1 RES     
    4789 H6         209.1192  -194.5352  -123.6858 H6            1 RES     
    4790 H6         209.3309  -193.2845  -124.9704 H6            1 RES     
    4791 H6         209.1504  -195.0124  -125.4309 H6            1 RES     
    4792 C0         210.8183  -208.2939  -132.4847 C0            1 RES     
    4793 C0         209.7082  -207.8518  -133.4696 C0            1 RES     
    4794 C0         209.6043  -208.6015  -134.8155 C0            1 RES     
    4795 C0         210.6306  -208.2432  -135.9188 C0            1 RES     
    4796 C0         210.7448  -206.7225  -136.1532 C0            1 RES     
    4797 C0         211.4197  -206.3086  -137.4689 C0            1 RES     
    4798 C0         210.4457  -206.3969  -138.6553 C0            1 RES     
    4799 C0         211.0892  -205.8934  -139.9557 C0            1 RES     
    4800 C0         210.0440  -205.8153  -141.0763 C0            1 RES     
    4801 C0         210.5743  -205.5896  -142.5088 C0            1 RES     
    4802 C0         211.3272  -204.2807  -142.8290 C0            1 RES     
    4803 C0         212.8006  -204.2688  -142.3731 C0            1 RES     
    4804 C0         213.5983  -203.0086  -142.7710 C0            1 RES     
    4805 C0         214.1570  -202.9409  -144.2144 C0            1 RES     
    4806 C0         213.1661  -202.8213  -145.3824 C0            1 RES     
    4807 C0         212.2462  -201.6083  -145.2589 C0            1 RES     
    4808 H6         211.8007  -208.3735  -132.9987 H6            1 RES     
    4809 H6         210.5311  -209.3234  -132.1737 H6            1 RES     
    4810 H6         208.7504  -208.0549  -132.9476 H6            1 RES     
    4811 H6         209.7340  -206.7769  -133.6926 H6            1 RES     
    4812 H6         209.5815  -209.7000  -134.6503 H6            1 RES     
    4813 H6         208.6151  -208.3144  -135.2376 H6            1 RES     
    4814 H6         211.6390  -208.6488  -135.6860 H6            1 RES     
    4815 H6         210.2695  -208.7406  -136.8437 H6            1 RES     
    4816 H6         209.7514  -206.2246  -136.1019 H6            1 RES     
    4817 H6         211.3719  -206.3366  -135.3386 H6            1 RES     
    4818 H6         212.3496  -206.8950  -137.6366 H6            1 RES     
    4819 H6         211.7003  -205.2371  -137.3735 H6            1 RES     
    4820 H6         210.0929  -207.4400  -138.7962 H6            1 RES     
    4821 H6         209.5665  -205.7530  -138.4251 H6            1 RES     
    4822 H6         211.4842  -204.8759  -139.7706 H6            1 RES     
    4823 H6         211.9123  -206.5849  -140.2366 H6            1 RES     
    4824 H6         209.5016  -206.7860  -141.1092 H6            1 RES     
    4825 H6         209.3041  -205.0236  -140.8221 H6            1 RES     
    4826 H6         211.1910  -206.4555  -142.8327 H6            1 RES     
    4827 H6         209.6603  -205.5861  -143.1443 H6            1 RES     
    4828 H6         210.7695  -203.4038  -142.4343 H6            1 RES     
    4829 H6         211.3128  -204.2125  -143.9240 H6            1 RES     
    4830 H6         212.8145  -204.2889  -141.2743 H6            1 RES     
    4831 H6         213.3401  -205.1713  -142.7331 H6            1 RES     
    4832 H6         214.5091  -203.0167  -142.1311 H6            1 RES     
    4833 H6         213.0329  -202.0909  -142.5036 H6            1 RES     
    4834 H6         214.8173  -202.0465  -144.2582 H6            1 RES     
    4835 H6         214.7984  -203.8317  -144.3921 H6            1 RES     
    4836 H6         213.7571  -202.7146  -146.3182 H6            1 RES     
    4837 H6         212.5784  -203.7476  -145.5041 H6            1 RES     
    4838 H6         212.8464  -200.6760  -145.1946 H6            1 RES     
    4839 H6         211.5913  -201.5490  -146.1535 H6            1 RES     
    4840 H6         211.6005  -201.6907  -144.3609 H6            1 RES     
    4841 C0         219.7138  -215.4656  -126.4459 C0            1 RES     
    4842 C1         218.3712  -214.7615  -126.1595 C1            1 RES     
    4843 C1         217.5986  -215.3490  -125.0457 C1            1 RES     
    4844 S2         215.8682  -215.1540  -125.4990 S2            1 RES     
    4845 C1         216.4466  -213.6306  -126.2791 C1            1 RES     
    4846 C1         217.7563  -213.7212  -126.7118 C1            1 RES     
    4847 C1         218.2608  -216.6414  -124.9491 C1            1 RES     
    4848 C1         219.4237  -216.7393  -125.6567 C1            1 RES     
    4849 C1         220.0709  -217.9739  -125.4686 C1            1 RES     
    4850 C1         219.3713  -218.7927  -124.5500 C1            1 RES     
    4851 S2         217.9855  -217.9757  -124.0056 S2            1 RES     
    4852 H3         218.1449  -213.0884  -127.4927 H3            1 RES     
    4853 H3         220.9984  -218.2526  -125.9532 H3            1 RES     
    4854 N4         220.5667  -220.9185  -124.8946 N4            1 RES     
    4855 C1         220.8939  -222.2094  -124.5896 C1            1 RES     
    4856 C1         220.3971  -222.8217  -123.4325 C1            1 RES     
    4857 C1         219.5654  -222.0832  -122.6003 C1            1 RES     
    4858 N4         219.0428  -222.5637  -121.4455 N4            1 RES     
    4859 S2         218.1709  -221.2749  -120.8919 S2            1 RES     
    4860 N4         218.4050  -220.1188  -122.0486 N4            1 RES     
    4861 C1         219.2178  -220.7471  -122.9387 C1            1 RES     
    4862 C1         219.7340  -220.1646  -124.1163 C1            1 RES     
    4863 H5         221.5399  -222.7700  -125.2528 H5            1 RES     
    4864 C0         220.8876  -214.7001  -125.7530 C0            1 RES     
    4865 C0         221.1286  -213.2980  -126.3213 C0            1 RES     
    4866 C0         222.1644  -212.4394  -125.5889 C0            1 RES     
    4867 C0         221.8381  -212.0994  -124.1259 C0            1 RES     
    4868 C0         220.3879  -211.6171  -123.9171 C0            1 RES     
    4869 C0         220.1750  -211.0143  -122.5232 C0            1 RES     
    4870 C0         220.6971  -209.5701  -122.4683 C0            1 RES     
    4871 C0         220.5538  -208.9711  -121.0686 C0            1 RES     
    4872 C0         220.8712  -207.4728  -121.0946 C0            1 RES     
    4873 C0         221.0605  -206.7887  -119.7259 C0            1 RES     
    4874 C0         219.9019  -206.8541  -118.7107 C0            1 RES     
    4875 C0         219.8371  -208.1836  -117.9260 C0            1 RES     
    4876 C0         218.7331  -208.2593  -116.8527 C0            1 RES     
    4877 C0         219.0180  -207.5876  -115.4877 C0            1 RES     
    4878 C0         219.1437  -206.0577  -115.4365 C0            1 RES     
    4879 C0         217.9132  -205.3425  -115.9911 C0            1 RES     
    4880 H6         220.6318  -214.5965  -124.6771 H6            1 RES     
    4881 H6         221.8265  -215.2923  -125.8165 H6            1 RES     
    4882 H6         221.4999  -213.4068  -127.3390 H6            1 RES     
    4883 H6         220.1827  -212.7262  -126.3487 H6            1 RES     
    4884 H6         223.1691  -212.9125  -125.6380 H6            1 RES     
    4885 H6         222.2177  -211.4795  -126.1501 H6            1 RES     
    4886 H6         222.0034  -212.9869  -123.4772 H6            1 RES     
    4887 H6         222.5700  -211.3231  -123.8215 H6            1 RES     
    4888 H6         220.0840  -210.8708  -124.6835 H6            1 RES     
    4889 H6         219.7255  -212.5029  -124.0227 H6            1 RES     
    4890 H6         220.6449  -211.6641  -121.7520 H6            1 RES     
    4891 H6         219.0825  -210.9711  -122.3192 H6            1 RES     
    4892 H6         221.7660  -209.5149  -122.7611 H6            1 RES     
    4893 H6         220.1027  -208.9683  -123.1924 H6            1 RES     
    4894 H6         219.5035  -209.1001  -120.7374 H6            1 RES     
    4895 H6         221.2502  -209.5084  -120.3883 H6            1 RES     
    4896 H6         221.8252  -207.3152  -121.6451 H6            1 RES     
    4897 H6         220.0645  -206.9579  -121.6631 H6            1 RES     
    4898 H6         221.9903  -207.1514  -119.2369 H6            1 RES     
    4899 H6         221.2200  -205.7147  -119.9708 H6            1 RES     
    4900 H6         218.9359  -206.6181  -119.2074 H6            1 RES     
    4901 H6         220.1112  -206.0496  -117.9955 H6            1 RES     
    4902 H6         219.6061  -208.9917  -118.6339 H6            1 RES     
    4903 H6         220.8180  -208.4223  -117.4607 H6            1 RES     
    4904 H6         218.6281  -209.3396  -116.6050 H6            1 RES     
    4905 H6         217.7593  -207.9368  -117.2778 H6            1 RES     
    4906 H6         218.1777  -207.8678  -114.8148 H6            1 RES     
    4907 H6         219.9447  -208.0272  -115.0582 H6            1 RES     
    4908 H6         219.2681  -205.7633  -114.3720 H6            1 RES     
    4909 H6         220.0593  -205.7164  -115.9496 H6            1 RES     
    4910 H6         217.0051  -205.6509  -115.4311 H6            1 RES     
    4911 H6         218.0441  -204.2454  -115.8831 H6            1 RES     
    4912 H6         217.7733  -205.5701  -117.0674 H6            1 RES     
    4913 C0         219.9889  -215.8325  -127.9627 C0            1 RES     
    4914 C0         219.5951  -214.7469  -128.9942 C0            1 RES     
    4915 C0         220.0035  -214.9748  -130.4657 C0            1 RES     
    4916 C0         221.4798  -214.7082  -130.8512 C0            1 RES     
    4917 C0         221.9857  -213.3378  -130.3546 C0            1 RES     
    4918 C0         223.2733  -212.8313  -131.0205 C0            1 RES     
    4919 C0         222.9891  -212.2044  -132.3954 C0            1 RES     
    4920 C0         224.2600  -211.6119  -133.0218 C0            1 RES     
    4921 C0         223.9158  -210.8314  -134.2973 C0            1 RES     
    4922 C0         225.0987  -210.4039  -135.1928 C0            1 RES     
    4923 C0         226.1514  -209.4284  -134.6245 C0            1 RES     
    4924 C0         227.1977  -210.0900  -133.7044 C0            1 RES     
    4925 C0         228.3165  -209.1511  -133.2049 C0            1 RES     
    4926 C0         229.4982  -208.8703  -134.1664 C0            1 RES     
    4927 C0         229.2312  -208.0591  -135.4436 C0            1 RES     
    4928 C0         228.6204  -206.6883  -135.1596 C0            1 RES     
    4929 H6         221.0605  -216.1101  -128.0634 H6            1 RES     
    4930 H6         219.3938  -216.7285  -128.2494 H6            1 RES     
    4931 H6         218.4856  -214.7303  -128.9984 H6            1 RES     
    4932 H6         219.9329  -213.7412  -128.7106 H6            1 RES     
    4933 H6         219.6912  -215.9854  -130.8060 H6            1 RES     
    4934 H6         219.4140  -214.2358  -131.0535 H6            1 RES     
    4935 H6         222.1532  -215.5031  -130.4637 H6            1 RES     
    4936 H6         221.5158  -214.7434  -131.9607 H6            1 RES     
    4937 H6         221.2073  -212.5505  -130.4623 H6            1 RES     
    4938 H6         222.2084  -213.4658  -129.2871 H6            1 RES     
    4939 H6         224.0357  -213.6393  -131.0701 H6            1 RES     
    4940 H6         223.6766  -212.0155  -130.3819 H6            1 RES     
    4941 H6         222.5513  -212.9555  -133.0859 H6            1 RES     
    4942 H6         222.2513  -211.3826  -132.2510 H6            1 RES     
    4943 H6         224.7078  -210.9118  -132.2903 H6            1 RES     
    4944 H6         224.9646  -212.4404  -133.2489 H6            1 RES     
    4945 H6         223.2779  -211.4809  -134.9365 H6            1 RES     
    4946 H6         223.3146  -209.9369  -134.0191 H6            1 RES     
    4947 H6         225.6132  -211.2984  -135.6052 H6            1 RES     
    4948 H6         224.6204  -209.8800  -136.0507 H6            1 RES     
    4949 H6         225.6557  -208.5666  -134.1272 H6            1 RES     
    4950 H6         226.6759  -209.0406  -135.5068 H6            1 RES     
    4951 H6         226.6804  -210.4363  -132.7987 H6            1 RES     
    4952 H6         227.6562  -210.9781  -134.1906 H6            1 RES     
    4953 H6         228.7890  -209.6791  -132.3464 H6            1 RES     
    4954 H6         227.8830  -208.2129  -132.7984 H6            1 RES     
    4955 H6         230.2587  -208.3085  -133.5801 H6            1 RES     
    4956 H6         229.9591  -209.8389  -134.4596 H6            1 RES     
    4957 H6         230.2056  -207.9051  -135.9568 H6            1 RES     
    4958 H6         228.6057  -208.6268  -136.1540 H6            1 RES     
    4959 H6         229.2852  -206.1029  -134.4896 H6            1 RES     
    4960 H6         228.4987  -206.1334  -136.1135 H6            1 RES     
    4961 H6         227.6221  -206.7897  -134.6873 H6            1 RES     
    4962 C0         223.3245  -227.1920  -122.7792 C0            1 RES     
    4963 C1         222.1747  -226.1643  -122.7318 C1            1 RES     
    4964 C1         220.8661  -226.7290  -122.3428 C1            1 RES     
    4965 S2         219.6388  -225.7916  -123.2662 S2            1 RES     
    4966 C1         220.8036  -224.4276  -123.0506 C1            1 RES     
    4967 C1         222.1146  -224.8584  -122.9693 C1            1 RES     
    4968 C1         221.1355  -228.1406  -122.5726 C1            1 RES     
    4969 C1         222.4508  -228.4434  -122.7755 C1            1 RES     
    4970 C1         222.6749  -229.8254  -122.9104 C1            1 RES     
    4971 C1         221.4771  -230.5636  -122.7550 C1            1 RES     
    4972 S2         220.1889  -229.4963  -122.4617 S2            1 RES     
    4973 H3         222.9440  -224.2114  -123.2038 H3            1 RES     
    4974 H3         223.6466  -230.2675  -123.0919 H3            1 RES     
    4975 N4         222.2519  -232.7761  -123.5109 N4            1 RES     
    4976 C1         222.1350  -234.1254  -123.6899 C1            1 RES     
    4977 C1         221.0371  -234.8255  -123.1751 C1            1 RES     
    4978 C1         220.0707  -234.1146  -122.4747 C1            1 RES     
    4979 N4         218.9775  -234.6882  -121.9149 N4            1 RES     
    4980 S2         218.2170  -233.3946  -121.2251 S2            1 RES     
    4981 N4         219.1955  -232.1185  -121.6035 N4            1 RES     
    4982 C1         220.1948  -232.7080  -122.3115 C1            1 RES     
    4983 C1         221.3133  -232.0353  -122.8491 C1            1 RES     
    4984 H5         222.8963  -234.6611  -124.2422 H5            1 RES     
    4985 C0         224.1475  -227.1484  -121.4508 C0            1 RES     
    4986 C0         224.8986  -225.8307  -121.2350 C0            1 RES     
    4987 C0         225.6027  -225.6662  -119.8845 C0            1 RES     
    4988 C0         224.6900  -225.6774  -118.6479 C0            1 RES     
    4989 C0         223.4420  -224.7835  -118.7986 C0            1 RES     
    4990 C0         222.7105  -224.5838  -117.4656 C0            1 RES     
    4991 C0         223.4126  -223.5150  -116.6134 C0            1 RES     
    4992 C0         222.7372  -223.3457  -115.2519 C0            1 RES     
    4993 C0         223.3132  -222.1306  -114.5182 C0            1 RES     
    4994 C0         222.9540  -221.9985  -113.0247 C0            1 RES     
    4995 C0         221.4637  -221.9321  -112.6353 C0            1 RES     
    4996 C0         220.7743  -223.3137  -112.5769 C0            1 RES     
    4997 C0         219.3008  -223.2935  -112.1239 C0            1 RES     
    4998 C0         219.0230  -223.2062  -110.6039 C0            1 RES     
    4999 C0         219.4040  -221.9159  -109.8629 C0            1 RES     
    5000 C0         218.7544  -220.6718  -110.4656 C0            1 RES     
    5001 H6         223.4343  -227.2803  -120.6098 H6            1 RES     
    5002 H6         224.8668  -227.9955  -121.4134 H6            1 RES     
    5003 H6         225.6820  -225.7627  -121.9880 H6            1 RES     
    5004 H6         224.2128  -224.9723  -121.3589 H6            1 RES     
    5005 H6         226.3945  -226.4363  -119.7604 H6            1 RES     
    5006 H6         226.1035  -224.6726  -119.9198 H6            1 RES     
    5007 H6         224.3486  -226.7126  -118.4294 H6            1 RES     
    5008 H6         225.3224  -225.3486  -117.7977 H6            1 RES     
    5009 H6         223.6934  -223.7878  -119.2252 H6            1 RES     
    5010 H6         222.7527  -225.2930  -119.5056 H6            1 RES     
    5011 H6         222.6178  -225.5563  -116.9332 H6            1 RES     
    5012 H6         221.6857  -224.2068  -117.6770 H6            1 RES     
    5013 H6         224.4788  -223.7702  -116.4421 H6            1 RES     
    5014 H6         223.3668  -222.5533  -117.1728 H6            1 RES     
    5015 H6         221.6542  -223.1737  -115.4162 H6            1 RES     
    5016 H6         222.9038  -224.2748  -114.6640 H6            1 RES     
    5017 H6         224.4241  -222.1777  -114.5584 H6            1 RES     
    5018 H6         222.9942  -221.2140  -115.0634 H6            1 RES     
    5019 H6         223.4461  -222.8022  -112.4355 H6            1 RES     
    5020 H6         223.4169  -221.0361  -112.7109 H6            1 RES     
    5021 H6         220.9198  -221.2249  -113.2982 H6            1 RES     
    5022 H6         221.4576  -221.5086  -111.6238 H6            1 RES     
    5023 H6         220.7575  -223.7347  -113.5918 H6            1 RES     
    5024 H6         221.3454  -224.0197  -111.9357 H6            1 RES     
    5025 H6         218.8822  -224.2823  -112.4182 H6            1 RES     
    5026 H6         218.7328  -222.5280  -112.6935 H6            1 RES     
    5027 H6         217.9270  -223.3449  -110.4733 H6            1 RES     
    5028 H6         219.5258  -224.0592  -110.0978 H6            1 RES     
    5029 H6         219.0589  -222.0147  -108.8109 H6            1 RES     
    5030 H6         220.4998  -221.7977  -109.8076 H6            1 RES     
    5031 H6         217.6489  -220.7775  -110.4652 H6            1 RES     
    5032 H6         219.0285  -219.7824  -109.8604 H6            1 RES     
    5033 H6         219.1049  -220.5048  -111.5045 H6            1 RES     
    5034 C0         224.2138  -227.1699  -124.0905 C0            1 RES     
    5035 C0         224.5810  -225.7636  -124.6246 C0            1 RES     
    5036 C0         225.5900  -225.6808  -125.7905 C0            1 RES     
    5037 C0         227.0905  -225.8708  -125.4570 C0            1 RES     
    5038 C0         227.5532  -224.9913  -124.2767 C0            1 RES     
    5039 C0         229.0729  -224.8180  -124.1417 C0            1 RES     
    5040 C0         229.6088  -223.7558  -125.1156 C0            1 RES     
    5041 C0         231.1122  -223.5120  -124.9174 C0            1 RES     
    5042 C0         231.5791  -222.3215  -125.7654 C0            1 RES     
    5043 C0         233.1036  -222.1122  -125.8923 C0            1 RES     
    5044 C0         233.9234  -221.8022  -124.6217 C0            1 RES     
    5045 C0         234.2508  -223.0394  -123.7607 C0            1 RES     
    5046 C0         235.1530  -222.7656  -122.5385 C0            1 RES     
    5047 C0         236.6794  -222.6660  -122.7831 C0            1 RES     
    5048 C0         237.2193  -221.4760  -123.5912 C0            1 RES     
    5049 C0         236.8272  -220.1260  -122.9943 C0            1 RES     
    5050 H6         225.1257  -227.7766  -123.9013 H6            1 RES     
    5051 H6         223.6668  -227.6596  -124.9273 H6            1 RES     
    5052 H6         223.6360  -225.3427  -125.0259 H6            1 RES     
    5053 H6         224.9306  -225.0822  -123.8376 H6            1 RES     
    5054 H6         225.2885  -226.3591  -126.6172 H6            1 RES     
    5055 H6         225.5100  -224.6399  -126.1767 H6            1 RES     
    5056 H6         227.3273  -226.9328  -125.2297 H6            1 RES     
    5057 H6         227.6450  -225.5884  -126.3769 H6            1 RES     
    5058 H6         227.0912  -223.9801  -124.3139 H6            1 RES     
    5059 H6         227.2086  -225.5000  -123.3666 H6            1 RES     
    5060 H6         229.5924  -225.7954  -124.2493 H6            1 RES     
    5061 H6         229.2718  -224.4327  -123.1180 H6            1 RES     
    5062 H6         229.4178  -224.0560  -126.1672 H6            1 RES     
    5063 H6         229.0679  -222.8031  -124.9147 H6            1 RES     
    5064 H6         231.2823  -223.2726  -123.8499 H6            1 RES     
    5065 H6         231.6630  -224.4341  -125.2017 H6            1 RES     
    5066 H6         231.2120  -222.4742  -126.8043 H6            1 RES     
    5067 H6         231.1053  -221.3939  -125.3730 H6            1 RES     
    5068 H6         233.5673  -222.9686  -126.4275 H6            1 RES     
    5069 H6         233.2060  -221.2223  -126.5533 H6            1 RES     
    5070 H6         233.4288  -221.0065  -124.0234 H6            1 RES     
    5071 H6         234.8699  -221.3914  -124.9949 H6            1 RES     
    5072 H6         233.3073  -223.4231  -123.3478 H6            1 RES     
    5073 H6         234.7031  -223.8481  -124.3747 H6            1 RES     
    5074 H6         235.0444  -223.6572  -121.8810 H6            1 RES     
    5075 H6         234.7700  -221.8984  -121.9600 H6            1 RES     
    5076 H6         237.1598  -222.6201  -121.7806 H6            1 RES     
    5077 H6         237.0258  -223.6034  -123.2707 H6            1 RES     
    5078 H6         238.3291  -221.5446  -123.5946 H6            1 RES     
    5079 H6         236.9127  -221.5399  -124.6496 H6            1 RES     
    5080 H6         237.1902  -220.0489  -121.9474 H6            1 RES     
    5081 H6         237.2870  -219.3106  -123.5913 H6            1 RES     
    5082 H6         235.7266  -219.9902  -123.0110 H6            1 RES     
    5083 C0         222.3814  -239.9464  -123.4308 C0            1 RES     
    5084 C1         221.5740  -238.6329  -123.3727 C1            1 RES     
    5085 C1         220.1573  -238.7685  -123.7693 C1            1 RES     
    5086 S2         219.7300  -237.2207  -124.5814 S2            1 RES     
    5087 C1         220.8901  -236.5047  -123.3958 C1            1 RES     
    5088 C1         221.8903  -237.3877  -123.0339 C1            1 RES     
    5089 C1         220.2231  -240.0460  -124.4634 C1            1 RES     
    5090 C1         221.3877  -240.7337  -124.2805 C1            1 RES     
    5091 C1         221.3751  -241.9964  -124.9001 C1            1 RES     
    5092 C1         220.1313  -242.2569  -125.5236 C1            1 RES     
    5093 S2         219.0955  -240.9304  -125.2956 S2            1 RES     
    5094 H3         222.8386  -237.0500  -122.6492 H3            1 RES     
    5095 H3         222.2081  -242.6882  -124.8842 H3            1 RES     
    5096 N4         220.7256  -244.2713  -126.8104 N4            1 RES     
    5097 C1         220.4484  -245.3677  -127.5769 C1            1 RES     
    5098 C1         219.1257  -245.7368  -127.8502 C1            1 RES     
    5099 C1         218.1015  -244.9622  -127.3201 C1            1 RES     
    5100 N4         216.7859  -245.2345  -127.5006 N4            1 RES     
    5101 S2         216.0566  -244.0175  -126.6553 S2            1 RES     
    5102 N4         217.3239  -243.1362  -126.0669 N4            1 RES     
    5103 C1         218.4036  -243.8133  -126.5396 C1            1 RES     
    5104 C1         219.7495  -243.4693  -126.2891 C1            1 RES     
    5105 H5         221.2601  -245.9562  -127.9846 H5            1 RES     
    5106 C0         222.4596  -240.5994  -122.0126 C0            1 RES     
    5107 C0         223.2562  -239.7734  -120.9977 C0            1 RES     
    5108 C0         223.2456  -240.2827  -119.5530 C0            1 RES     
    5109 C0         221.8705  -240.3235  -118.8676 C0            1 RES     
    5110 C0         221.0476  -239.0340  -119.0663 C0            1 RES     
    5111 C0         219.8228  -238.9830  -118.1450 C0            1 RES     
    5112 C0         220.2247  -238.5462  -116.7275 C0            1 RES     
    5113 C0         219.0283  -238.5510  -115.7751 C0            1 RES     
    5114 C0         219.4074  -237.9041  -114.4394 C0            1 RES     
    5115 C0         218.4114  -238.0960  -113.2782 C0            1 RES     
    5116 C0         216.9618  -237.6079  -113.4715 C0            1 RES     
    5117 C0         216.0745  -238.5937  -114.2643 C0            1 RES     
    5118 C0         214.5998  -238.1713  -114.4186 C0            1 RES     
    5119 C0         213.6521  -238.4402  -113.2249 C0            1 RES     
    5120 C0         213.8753  -237.6579  -111.9221 C0            1 RES     
    5121 C0         213.8494  -236.1445  -112.1271 C0            1 RES     
    5122 H6         221.4210  -240.7031  -121.6332 H6            1 RES     
    5123 H6         222.8929  -241.6212  -122.0806 H6            1 RES     
    5124 H6         224.3004  -239.7776  -121.3059 H6            1 RES     
    5125 H6         222.8952  -238.7284  -120.9842 H6            1 RES     
    5126 H6         223.7145  -241.2885  -119.4899 H6            1 RES     
    5127 H6         223.8848  -239.5776  -118.9755 H6            1 RES     
    5128 H6         221.2722  -241.1775  -119.2530 H6            1 RES     
    5129 H6         222.0697  -240.5143  -117.7929 H6            1 RES     
    5130 H6         221.6608  -238.1208  -118.9028 H6            1 RES     
    5131 H6         220.6962  -239.0242  -120.1203 H6            1 RES     
    5132 H6         219.2995  -239.9648  -118.1532 H6            1 RES     
    5133 H6         219.1196  -238.2137  -118.5331 H6            1 RES     
    5134 H6         221.0063  -239.2114  -116.3055 H6            1 RES     
    5135 H6         220.6401  -237.5155  -116.7968 H6            1 RES     
    5136 H6         218.2128  -237.9553  -116.2329 H6            1 RES     
    5137 H6         218.7091  -239.6055  -115.6243 H6            1 RES     
    5138 H6         220.3688  -238.3394  -114.0873 H6            1 RES     
    5139 H6         219.5732  -236.8176  -114.6158 H6            1 RES     
    5140 H6         218.3947  -239.1589  -112.9540 H6            1 RES     
    5141 H6         218.8451  -237.5073  -112.4389 H6            1 RES     
    5142 H6         216.9505  -236.5896  -113.9168 H6            1 RES     
    5143 H6         216.5554  -237.5294  -112.4560 H6            1 RES     
    5144 H6         216.4634  -238.6606  -115.2899 H6            1 RES     
    5145 H6         216.1196  -239.6144  -113.8265 H6            1 RES     
    5146 H6         214.1895  -238.8051  -115.2368 H6            1 RES     
    5147 H6         214.5347  -237.1202  -114.7706 H6            1 RES     
    5148 H6         212.6241  -238.2011  -113.5760 H6            1 RES     
    5149 H6         213.6748  -239.5262  -112.9866 H6            1 RES     
    5150 H6         213.0577  -237.9289  -111.2197 H6            1 RES     
    5151 H6         214.8105  -237.9698  -111.4260 H6            1 RES     
    5152 H6         212.8818  -235.8344  -112.5753 H6            1 RES     
    5153 H6         213.9679  -235.6372  -111.1468 H6            1 RES     
    5154 H6         214.6787  -235.8191  -112.7876 H6            1 RES     
    5155 C0         223.7743  -239.8655  -124.1820 C0            1 RES     
    5156 C0         224.6178  -238.6003  -123.8898 C0            1 RES     
    5157 C0         226.0555  -238.5522  -124.4510 C0            1 RES     
    5158 C0         227.1442  -239.3660  -123.7085 C0            1 RES     
    5159 C0         227.1474  -239.1057  -122.1877 C0            1 RES     
    5160 C0         228.4182  -239.5471  -121.4474 C0            1 RES     
    5161 C0         229.5496  -238.5179  -121.6046 C0            1 RES     
    5162 C0         230.7898  -238.9098  -120.7878 C0            1 RES     
    5163 C0         231.8268  -237.7791  -120.8112 C0            1 RES     
    5164 C0         233.2340  -238.1134  -120.2705 C0            1 RES     
    5165 C0         233.3890  -238.5130  -118.7877 C0            1 RES     
    5166 C0         233.0170  -239.9787  -118.4837 C0            1 RES     
    5167 C0         233.2586  -240.4261  -117.0262 C0            1 RES     
    5168 C0         234.7023  -240.8233  -116.6290 C0            1 RES     
    5169 C0         235.7827  -239.7315  -116.5930 C0            1 RES     
    5170 C0         235.4242  -238.5717  -115.6660 C0            1 RES     
    5171 H6         224.3467  -240.7900  -123.9514 H6            1 RES     
    5172 H6         223.6105  -239.8520  -125.2829 H6            1 RES     
    5173 H6         224.0822  -237.7653  -124.3872 H6            1 RES     
    5174 H6         224.6735  -238.3578  -122.8203 H6            1 RES     
    5175 H6         226.0605  -238.7979  -125.5346 H6            1 RES     
    5176 H6         226.3742  -237.4900  -124.3557 H6            1 RES     
    5177 H6         227.0317  -240.4573  -123.8871 H6            1 RES     
    5178 H6         228.1139  -239.0482  -124.1469 H6            1 RES     
    5179 H6         226.9664  -238.0329  -121.9557 H6            1 RES     
    5180 H6         226.3182  -239.6970  -121.7774 H6            1 RES     
    5181 H6         228.7243  -240.5683  -121.7639 H6            1 RES     
    5182 H6         228.1741  -239.5808  -120.3633 H6            1 RES     
    5183 H6         229.8303  -238.4037  -122.6726 H6            1 RES     
    5184 H6         229.1757  -237.5382  -121.2292 H6            1 RES     
    5185 H6         230.4717  -239.0746  -119.7403 H6            1 RES     
    5186 H6         231.2180  -239.8415  -121.2155 H6            1 RES     
    5187 H6         231.9794  -237.4740  -121.8700 H6            1 RES     
    5188 H6         231.4141  -236.9024  -120.2636 H6            1 RES     
    5189 H6         233.7203  -238.8816  -120.9097 H6            1 RES     
    5190 H6         233.8110  -237.1702  -120.4005 H6            1 RES     
    5191 H6         232.8342  -237.8059  -118.1335 H6            1 RES     
    5192 H6         234.4580  -238.3858  -118.5758 H6            1 RES     
    5193 H6         231.9368  -240.0947  -118.6500 H6            1 RES     
    5194 H6         233.5404  -240.6773  -119.1717 H6            1 RES     
    5195 H6         232.6777  -241.3675  -116.9021 H6            1 RES     
    5196 H6         232.8228  -239.6907  -116.3172 H6            1 RES     
    5197 H6         234.6434  -241.2533  -115.6046 H6            1 RES     
    5198 H6         235.0496  -241.6341  -117.3061 H6            1 RES     
    5199 H6         236.7214  -240.1963  -116.2200 H6            1 RES     
    5200 H6         236.0136  -239.3644  -117.6080 H6            1 RES     
    5201 H6         235.2496  -238.9444  -114.6344 H6            1 RES     
    5202 H6         236.2622  -237.8438  -115.6444 H6            1 RES     
    5203 H6         234.5160  -238.0451  -116.0236 H6            1 RES     
    5204 C0         219.4025  -250.6750  -129.7563 C0            1 RES     
    5205 C1         218.9388  -249.2373  -129.4424 C1            1 RES     
    5206 C1         217.8887  -248.7231  -130.3455 C1            1 RES     
    5207 S2         218.2123  -246.9610  -130.5130 S2            1 RES     
    5208 C1         218.7785  -247.1012  -128.8030 C1            1 RES     
    5209 C1         219.2901  -248.3527  -128.5153 C1            1 RES     
    5210 C1         218.0283  -249.6710  -131.4409 C1            1 RES     
    5211 C1         218.8043  -250.7575  -131.1580 C1            1 RES     
    5212 C1         218.8440  -251.6857  -132.2141 C1            1 RES     
    5213 C1         218.0261  -251.2781  -133.2951 C1            1 RES     
    5214 S2         217.2882  -249.7955  -132.9184 S2            1 RES     
    5215 H3         219.9841  -248.5139  -127.7068 H3            1 RES     
    5216 H3         219.4152  -252.6054  -132.1921 H3            1 RES     
    5217 N4         218.7582  -252.8954  -135.0025 N4            1 RES     
    5218 C1         218.6738  -253.5368  -136.2058 C1            1 RES     
    5219 C1         217.5998  -253.2994  -137.0722 C1            1 RES     
    5220 C1         216.6199  -252.3976  -136.6768 C1            1 RES     
    5221 N4         215.5265  -252.1046  -137.4224 N4            1 RES     
    5222 S2         214.7346  -251.0123  -136.4699 S2            1 RES     
    5223 N4         215.7103  -250.8699  -135.1444 N4            1 RES     
    5224 C1         216.7292  -251.7229  -135.4304 C1            1 RES     
    5225 C1         217.8291  -251.9841  -134.5852 C1            1 RES     
    5226 H5         219.4495  -254.2329  -136.4981 H5            1 RES     
    5227 C0         218.6643  -251.6979  -128.8328 C0            1 RES     
    5228 C0         219.0221  -251.5579  -127.3498 C0            1 RES     
    5229 C0         218.2232  -252.4292  -126.3755 C0            1 RES     
    5230 C0         216.7099  -252.1650  -126.3276 C0            1 RES     
    5231 C0         216.3511  -250.6672  -126.2421 C0            1 RES     
    5232 C0         214.8716  -250.4463  -125.9050 C0            1 RES     
    5233 C0         214.6231  -250.6245  -124.3990 C0            1 RES     
    5234 C0         213.1421  -250.4724  -124.0495 C0            1 RES     
    5235 C0         212.9541  -250.4326  -122.5298 C0            1 RES     
    5236 C0         211.5086  -250.5804  -122.0143 C0            1 RES     
    5237 C0         210.4545  -249.5632  -122.4951 C0            1 RES     
    5238 C0         209.8817  -249.8765  -123.8956 C0            1 RES     
    5239 C0         208.7747  -248.9196  -124.3811 C0            1 RES     
    5240 C0         207.3399  -249.1626  -123.8539 C0            1 RES     
    5241 C0         207.0605  -248.9367  -122.3607 C0            1 RES     
    5242 C0         207.4309  -247.5302  -121.8940 C0            1 RES     
    5243 H6         217.5732  -251.5220  -128.9421 H6            1 RES     
    5244 H6         218.8690  -252.7384  -129.1669 H6            1 RES     
    5245 H6         220.0630  -251.8521  -127.2256 H6            1 RES     
    5246 H6         218.9099  -250.5071  -127.0245 H6            1 RES     
    5247 H6         218.3989  -253.5073  -126.5813 H6            1 RES     
    5248 H6         218.6318  -252.2098  -125.3635 H6            1 RES     
    5249 H6         216.2155  -252.5873  -127.2293 H6            1 RES     
    5250 H6         216.3295  -252.7226  -125.4470 H6            1 RES     
    5251 H6         216.9758  -250.1326  -125.4934 H6            1 RES     
    5252 H6         216.5559  -250.2199  -127.2384 H6            1 RES     
    5253 H6         214.2362  -251.1199  -126.5217 H6            1 RES     
    5254 H6         214.6045  -249.3958  -126.1545 H6            1 RES     
    5255 H6         214.9613  -251.6216  -124.0484 H6            1 RES     
    5256 H6         215.2126  -249.8454  -123.8649 H6            1 RES     
    5257 H6         212.7785  -249.5138  -124.4718 H6            1 RES     
    5258 H6         212.5914  -251.3315  -124.4912 H6            1 RES     
    5259 H6         213.5245  -251.2717  -122.0733 H6            1 RES     
    5260 H6         213.3920  -249.4817  -122.1517 H6            1 RES     
    5261 H6         211.1324  -251.6085  -122.2056 H6            1 RES     
    5262 H6         211.5934  -250.4659  -120.9103 H6            1 RES     
    5263 H6         210.8559  -248.5286  -122.4331 H6            1 RES     
    5264 H6         209.6362  -249.6444  -121.7696 H6            1 RES     
    5265 H6         210.6920  -249.7756  -124.6308 H6            1 RES     
    5266 H6         209.5123  -250.9234  -123.9523 H6            1 RES     
    5267 H6         208.6910  -249.0888  -125.4783 H6            1 RES     
    5268 H6         209.0917  -247.8639  -124.2477 H6            1 RES     
    5269 H6         206.6738  -248.4728  -124.4177 H6            1 RES     
    5270 H6         207.0340  -250.2002  -124.1118 H6            1 RES     
    5271 H6         205.9717  -249.0843  -122.1934 H6            1 RES     
    5272 H6         207.5636  -249.6997  -121.7419 H6            1 RES     
    5273 H6         206.8768  -246.7712  -122.4857 H6            1 RES     
    5274 H6         207.1624  -247.4140  -120.8231 H6            1 RES     
    5275 H6         208.5203  -247.3512  -121.9991 H6            1 RES     
    5276 C0         220.9703  -250.8909  -129.8350 C0            1 RES     
    5277 C0         221.7994  -250.1674  -128.7456 C0            1 RES     
    5278 C0         223.3084  -250.4846  -128.6648 C0            1 RES     
    5279 C0         223.7274  -251.8194  -128.0003 C0            1 RES     
    5280 C0         223.0537  -252.0384  -126.6296 C0            1 RES     
    5281 C0         223.7023  -253.1101  -125.7415 C0            1 RES     
    5282 C0         224.9467  -252.5679  -125.0196 C0            1 RES     
    5283 C0         225.5422  -253.6072  -124.0583 C0            1 RES     
    5284 C0         226.6617  -252.9803  -123.2168 C0            1 RES     
    5285 C0         227.5432  -253.9484  -122.3984 C0            1 RES     
    5286 C0         226.8893  -254.7945  -121.2853 C0            1 RES     
    5287 C0         226.1400  -256.0427  -121.7949 C0            1 RES     
    5288 C0         225.5630  -256.9551  -120.6915 C0            1 RES     
    5289 C0         226.5323  -257.9500  -120.0055 C0            1 RES     
    5290 C0         227.6530  -257.3907  -119.1156 C0            1 RES     
    5291 C0         227.1285  -256.5084  -117.9845 C0            1 RES     
    5292 H6         221.1704  -251.9843  -129.8298 H6            1 RES     
    5293 H6         221.3590  -250.4951  -130.8001 H6            1 RES     
    5294 H6         221.7410  -249.0880  -128.9964 H6            1 RES     
    5295 H6         221.3829  -250.2885  -127.7367 H6            1 RES     
    5296 H6         223.7829  -250.3844  -129.6645 H6            1 RES     
    5297 H6         223.7425  -249.6908  -128.0163 H6            1 RES     
    5298 H6         223.5040  -252.6896  -128.6548 H6            1 RES     
    5299 H6         224.8294  -251.7637  -127.8736 H6            1 RES     
    5300 H6         222.9965  -251.0931  -126.0459 H6            1 RES     
    5301 H6         222.0323  -252.3788  -126.8450 H6            1 RES     
    5302 H6         223.9170  -254.0306  -126.3275 H6            1 RES     
    5303 H6         222.9684  -253.3700  -124.9479 H6            1 RES     
    5304 H6         225.7200  -252.2551  -125.7522 H6            1 RES     
    5305 H6         224.6378  -251.6766  -124.4274 H6            1 RES     
    5306 H6         224.7369  -253.9451  -123.3779 H6            1 RES     
    5307 H6         225.9320  -254.4606  -124.6535 H6            1 RES     
    5308 H6         227.3580  -252.4549  -123.9071 H6            1 RES     
    5309 H6         226.2169  -252.2166  -122.5402 H6            1 RES     
    5310 H6         228.1158  -254.6163  -123.0776 H6            1 RES     
    5311 H6         228.2831  -253.2878  -121.8929 H6            1 RES     
    5312 H6         226.2391  -254.1600  -120.6447 H6            1 RES     
    5313 H6         227.7283  -255.1348  -120.6656 H6            1 RES     
    5314 H6         225.2718  -255.7018  -122.3762 H6            1 RES     
    5315 H6         226.7813  -256.6483  -122.4713 H6            1 RES     
    5316 H6         224.8230  -257.6111  -121.2026 H6            1 RES     
    5317 H6         224.9940  -256.3552  -119.9501 H6            1 RES     
    5318 H6         225.9084  -258.6098  -119.3627 H6            1 RES     
    5319 H6         226.9957  -258.5935  -120.7850 H6            1 RES     
    5320 H6         228.1882  -258.2537  -118.6626 H6            1 RES     
    5321 H6         228.4075  -256.8520  -119.7145 H6            1 RES     
    5322 H6         226.4132  -257.0775  -117.3535 H6            1 RES     
    5323 H6         227.9776  -256.1778  -117.3501 H6            1 RES     
    5324 H6         226.6242  -255.6064  -118.3871 H6            1 RES     
    5325 C0         217.7869  -257.2008  -140.6555 C0            1 RES     
    5326 C1         217.5196  -255.8542  -139.9515 C1            1 RES     
    5327 C1         217.1520  -254.7508  -140.8627 C1            1 RES     
    5328 S2         217.8523  -253.2633  -140.1313 S2            1 RES     
    5329 C1         217.4924  -254.0972  -138.5695 C1            1 RES     
    5330 C1         217.5495  -255.4741  -138.6787 C1            1 RES     
    5331 C1         217.6108  -255.3165  -142.1227 C1            1 RES     
    5332 C1         217.9287  -256.6426  -142.0689 C1            1 RES     
    5333 C1         218.2869  -257.1660  -143.3244 C1            1 RES     
    5334 C1         218.1826  -256.1892  -144.3435 C1            1 RES     
    5335 S2         217.6591  -254.7212  -143.6685 S2            1 RES     
    5336 H3         217.7259  -256.1079  -137.8252 H3            1 RES     
    5337 H3         218.5866  -258.1933  -143.4902 H3            1 RES     
    5338 N4         219.3111  -257.3821  -146.1793 N4            1 RES     
    5339 C1         219.6893  -257.5636  -147.4795 C1            1 RES     
    5340 C1         219.2298  -256.7068  -148.4871 C1            1 RES     
    5341 C1         218.3771  -255.6690  -148.1327 C1            1 RES     
    5342 N4         217.8541  -254.7915  -149.0238 N4            1 RES     
    5343 S2         216.9331  -253.8181  -148.0584 S2            1 RES     
    5344 N4         217.1627  -254.4388  -146.5447 N4            1 RES     
    5345 C1         218.0061  -255.4799  -146.7736 C1            1 RES     
    5346 C1         218.4933  -256.3610  -145.7842 C1            1 RES     
    5347 H5         220.3578  -258.3755  -147.7352 H5            1 RES     
    5348 C0         216.5141  -258.1066  -140.5971 C0            1 RES     
    5349 C0         216.1387  -258.5502  -139.1796 C0            1 RES     
    5350 C0         214.8191  -259.3149  -139.0367 C0            1 RES     
    5351 C0         213.5515  -258.5432  -139.4367 C0            1 RES     
    5352 C0         213.4949  -257.1146  -138.8578 C0            1 RES     
    5353 C0         212.1096  -256.4785  -139.0245 C0            1 RES     
    5354 C0         211.1421  -256.9886  -137.9450 C0            1 RES     
    5355 C0         209.7362  -256.4165  -138.1314 C0            1 RES     
    5356 C0         208.8564  -256.7602  -136.9255 C0            1 RES     
    5357 C0         207.3431  -256.5148  -137.0895 C0            1 RES     
    5358 C0         206.8681  -255.0899  -137.4380 C0            1 RES     
    5359 C0         206.9861  -254.7452  -138.9396 C0            1 RES     
    5360 C0         206.4564  -253.3531  -139.3371 C0            1 RES     
    5361 C0         204.9282  -253.1991  -139.5282 C0            1 RES     
    5362 C0         204.0190  -253.3372  -138.2981 C0            1 RES     
    5363 C0         204.3869  -252.3676  -137.1766 C0            1 RES     
    5364 H6         215.6661  -257.5208  -141.0108 H6            1 RES     
    5365 H6         216.6466  -259.0020  -141.2429 H6            1 RES     
    5366 H6         216.9136  -259.2266  -138.8225 H6            1 RES     
    5367 H6         216.0916  -257.6770  -138.5031 H6            1 RES     
    5368 H6         214.8581  -260.2707  -139.6030 H6            1 RES     
    5369 H6         214.7280  -259.5683  -137.9565 H6            1 RES     
    5370 H6         213.4770  -258.4703  -140.5434 H6            1 RES     
    5371 H6         212.6963  -259.1561  -139.0847 H6            1 RES     
    5372 H6         213.7761  -257.0909  -137.7821 H6            1 RES     
    5373 H6         214.2337  -256.5010  -139.4166 H6            1 RES     
    5374 H6         211.7291  -256.6600  -140.0541 H6            1 RES     
    5375 H6         212.2046  -255.3798  -138.8802 H6            1 RES     
    5376 H6         211.0700  -258.0959  -137.9569 H6            1 RES     
    5377 H6         211.5433  -256.6730  -136.9555 H6            1 RES     
    5378 H6         209.8132  -255.3128  -138.2045 H6            1 RES     
    5379 H6         209.3084  -256.8442  -139.0644 H6            1 RES     
    5380 H6         208.9633  -257.8439  -136.6976 H6            1 RES     
    5381 H6         209.2357  -256.1915  -136.0470 H6            1 RES     
    5382 H6         206.9122  -257.2291  -137.8238 H6            1 RES     
    5383 H6         206.9102  -256.7696  -136.0962 H6            1 RES     
    5384 H6         207.3838  -254.3410  -136.7988 H6            1 RES     
    5385 H6         205.8046  -255.0766  -137.1709 H6            1 RES     
    5386 H6         208.0513  -254.7355  -139.2093 H6            1 RES     
    5387 H6         206.4932  -255.5183  -139.5681 H6            1 RES     
    5388 H6         206.8764  -253.1489  -140.3478 H6            1 RES     
    5389 H6         206.8697  -252.5757  -138.6605 H6            1 RES     
    5390 H6         204.7615  -252.1807  -139.9434 H6            1 RES     
    5391 H6         204.5876  -253.9279  -140.2959 H6            1 RES     
    5392 H6         202.9777  -253.1193  -138.6200 H6            1 RES     
    5393 H6         204.0056  -254.3769  -137.9280 H6            1 RES     
    5394 H6         204.3430  -251.3207  -137.5446 H6            1 RES     
    5395 H6         203.6676  -252.4822  -136.3388 H6            1 RES     
    5396 H6         205.4050  -252.5762  -136.7896 H6            1 RES     
    5397 C0         219.1253  -257.9407  -140.2406 C0            1 RES     
    5398 C0         219.4554  -257.9251  -138.7278 C0            1 RES     
    5399 C0         220.6474  -258.7800  -138.2456 C0            1 RES     
    5400 C0         220.4288  -260.3075  -138.1123 C0            1 RES     
    5401 C0         219.1539  -260.6584  -137.3173 C0            1 RES     
    5402 C0         219.0761  -262.1032  -136.8031 C0            1 RES     
    5403 C0         219.9024  -262.2912  -135.5202 C0            1 RES     
    5404 C0         219.7505  -263.7095  -134.9509 C0            1 RES     
    5405 C0         220.4290  -263.8123  -133.5785 C0            1 RES     
    5406 C0         220.6043  -265.2300  -132.9926 C0            1 RES     
    5407 C0         219.3474  -266.0663  -132.6712 C0            1 RES     
    5408 C0         218.7063  -266.7452  -133.8989 C0            1 RES     
    5409 C0         217.5070  -267.6652  -133.5858 C0            1 RES     
    5410 C0         217.8156  -269.0997  -133.0888 C0            1 RES     
    5411 C0         218.4587  -269.2768  -131.7048 C0            1 RES     
    5412 C0         217.6405  -268.6391  -130.5837 C0            1 RES     
    5413 H6         219.0814  -258.9809  -140.6298 H6            1 RES     
    5414 H6         219.9967  -257.4489  -140.7284 H6            1 RES     
    5415 H6         219.7354  -256.8767  -138.4961 H6            1 RES     
    5416 H6         218.5928  -258.1770  -138.0966 H6            1 RES     
    5417 H6         221.5513  -258.5704  -138.8569 H6            1 RES     
    5418 H6         220.8638  -258.4283  -137.2119 H6            1 RES     
    5419 H6         220.3810  -260.8018  -139.1068 H6            1 RES     
    5420 H6         221.3229  -260.6978  -137.5815 H6            1 RES     
    5421 H6         219.0098  -259.9746  -136.4519 H6            1 RES     
    5422 H6         218.3158  -260.5227  -138.0136 H6            1 RES     
    5423 H6         219.3610  -262.8221  -137.6024 H6            1 RES     
    5424 H6         218.0176  -262.2984  -136.5251 H6            1 RES     
    5425 H6         220.9758  -262.0815  -135.7107 H6            1 RES     
    5426 H6         219.5281  -261.5655  -134.7626 H6            1 RES     
    5427 H6         218.6697  -263.9143  -134.8259 H6            1 RES     
    5428 H6         220.2028  -264.4302  -135.6653 H6            1 RES     
    5429 H6         221.4576  -263.3991  -133.6714 H6            1 RES     
    5430 H6         219.8733  -263.1745  -132.8550 H6            1 RES     
    5431 H6         221.2894  -265.8290  -133.6306 H6            1 RES     
    5432 H6         221.1249  -265.0655  -132.0225 H6            1 RES     
    5433 H6         218.6077  -265.4571  -132.1077 H6            1 RES     
    5434 H6         219.7034  -266.8556  -131.9974 H6            1 RES     
    5435 H6         218.3070  -265.9560  -134.5514 H6            1 RES     
    5436 H6         219.4610  -267.3150  -134.4830 H6            1 RES     
    5437 H6         216.9898  -267.8239  -134.5586 H6            1 RES     
    5438 H6         216.7820  -267.1459  -132.9240 H6            1 RES     
    5439 H6         216.8455  -269.6439  -133.0662 H6            1 RES     
    5440 H6         218.4598  -269.6077  -133.8394 H6            1 RES     
    5441 H6         218.5326  -270.3678  -131.5029 H6            1 RES     
    5442 H6         219.4962  -268.9001  -131.6952 H6            1 RES     
    5443 H6         216.6155  -269.0664  -130.5655 H6            1 RES     
    5444 H6         218.1288  -268.8438  -129.6079 H6            1 RES     
    5445 H6         217.5766  -267.5398  -130.7161 H6            1 RES     
    5446 C0         220.3438  -259.1659  -153.0486 C0            1 RES     
    5447 C1         220.0404  -258.0862  -151.9890 C1            1 RES     
    5448 C1         220.3760  -256.7093  -152.4064 C1            1 RES     
    5449 S2         220.9156  -255.8665  -150.9109 S2            1 RES     
    5450 C1         219.6984  -256.9314  -150.1057 C1            1 RES     
    5451 C1         219.5315  -258.1361  -150.7627 C1            1 RES     
    5452 C1         221.2612  -257.0054  -153.5229 C1            1 RES     
    5453 C1         221.2497  -258.3086  -153.9283 C1            1 RES     
    5454 C1         222.0548  -258.5320  -155.0598 C1            1 RES     
    5455 C1         222.6428  -257.3311  -155.5244 C1            1 RES     
    5456 S2         222.1575  -256.0422  -154.5305 S2            1 RES     
    5457 H3         219.1512  -259.0116  -150.2625 H3            1 RES     
    5458 H3         222.1908  -259.4999  -155.5260 H3            1 RES     
    5459 N4         224.2548  -258.2563  -157.1406 N4            1 RES     
    5460 C1         225.1650  -258.1718  -158.1560 C1            1 RES     
    5461 C1         225.4200  -256.9507  -158.7919 C1            1 RES     
    5462 C1         224.7222  -255.8271  -158.3670 C1            1 RES     
    5463 N4         224.8711  -254.5989  -158.9208 N4            1 RES     
    5464 S2         223.8103  -253.6872  -158.0428 S2            1 RES     
    5465 N4         223.1625  -254.7648  -156.9712 N4            1 RES     
    5466 C1         223.7915  -255.9248  -157.2971 C1            1 RES     
    5467 C1         223.5642  -257.1721  -156.6765 C1            1 RES     
    5468 H5         225.7018  -259.0577  -158.4701 H5            1 RES     
    5469 C0         219.0495  -259.5184  -153.8513 C0            1 RES     
    5470 C0         217.9639  -260.1905  -153.0046 C0            1 RES     
    5471 C0         216.6166  -260.4262  -153.6942 C0            1 RES     
    5472 C0         215.8723  -259.1641  -154.1585 C0            1 RES     
    5473 C0         215.8252  -258.0521  -153.0905 C0            1 RES     
    5474 C0         214.8422  -256.9355  -153.4627 C0            1 RES     
    5475 C0         213.3981  -257.3506  -153.1402 C0            1 RES     
    5476 C0         212.3946  -256.2772  -153.5634 C0            1 RES     
    5477 C0         210.9976  -256.6146  -153.0332 C0            1 RES     
    5478 C0         209.8277  -255.7971  -153.6164 C0            1 RES     
    5479 C0         209.8648  -254.2627  -153.4703 C0            1 RES     
    5480 C0         210.7509  -253.5592  -154.5227 C0            1 RES     
    5481 C0         210.7583  -252.0193  -154.4509 C0            1 RES     
    5482 C0         209.5707  -251.2692  -155.1010 C0            1 RES     
    5483 C0         208.1771  -251.4213  -154.4739 C0            1 RES     
    5484 C0         208.1447  -251.0294  -152.9979 C0            1 RES     
    5485 H6         218.6350  -258.5696  -154.2531 H6            1 RES     
    5486 H6         219.2974  -260.1675  -154.7194 H6            1 RES     
    5487 H6         218.3252  -261.1759  -152.7149 H6            1 RES     
    5488 H6         217.7701  -259.6013  -152.0893 H6            1 RES     
    5489 H6         216.7346  -261.1179  -154.5564 H6            1 RES     
    5490 H6         215.9727  -260.9347  -152.9417 H6            1 RES     
    5491 H6         216.3518  -258.7467  -155.0704 H6            1 RES     
    5492 H6         214.8522  -259.4968  -154.4409 H6            1 RES     
    5493 H6         215.5563  -258.4505  -152.0878 H6            1 RES     
    5494 H6         216.8445  -257.6154  -153.0215 H6            1 RES     
    5495 H6         214.9733  -256.6538  -154.5310 H6            1 RES     
    5496 H6         215.0685  -256.0423  -152.8399 H6            1 RES     
    5497 H6         213.1266  -258.2988  -153.6487 H6            1 RES     
    5498 H6         213.3301  -257.5096  -152.0402 H6            1 RES     
    5499 H6         212.7103  -255.3090  -153.1248 H6            1 RES     
    5500 H6         212.3910  -256.2241  -154.6741 H6            1 RES     
    5501 H6         210.7693  -257.6779  -153.2680 H6            1 RES     
    5502 H6         211.0132  -256.5094  -151.9252 H6            1 RES     
    5503 H6         209.6707  -256.0545  -154.6861 H6            1 RES     
    5504 H6         208.9324  -256.1566  -153.0612 H6            1 RES     
    5505 H6         210.1466  -253.9776  -152.4335 H6            1 RES     
    5506 H6         208.8289  -253.9413  -153.6317 H6            1 RES     
    5507 H6         211.7940  -253.8602  -154.3529 H6            1 RES     
    5508 H6         210.4787  -253.8771  -155.5525 H6            1 RES     
    5509 H6         211.6409  -251.6947  -155.0468 H6            1 RES     
    5510 H6         210.9401  -251.6827  -153.4085 H6            1 RES     
    5511 H6         209.8247  -250.1866  -155.0709 H6            1 RES     
    5512 H6         209.5042  -251.5624  -156.1716 H6            1 RES     
    5513 H6         207.4816  -250.7540  -155.0273 H6            1 RES     
    5514 H6         207.7862  -252.4436  -154.6162 H6            1 RES     
    5515 H6         208.4868  -249.9805  -152.8717 H6            1 RES     
    5516 H6         207.1058  -251.1147  -152.6160 H6            1 RES     
    5517 H6         208.7910  -251.6993  -152.3951 H6            1 RES     
    5518 C0         221.1477  -260.4301  -152.5326 C0            1 RES     
    5519 C0         220.7102  -260.9822  -151.1536 C0            1 RES     
    5520 C0         221.3342  -262.3144  -150.6843 C0            1 RES     
    5521 C0         220.7859  -263.6229  -151.3056 C0            1 RES     
    5522 C0         219.2456  -263.7015  -151.2627 C0            1 RES     
    5523 C0         218.6519  -265.1005  -151.4821 C0            1 RES     
    5524 C0         218.7096  -265.9459  -150.1991 C0            1 RES     
    5525 C0         218.0313  -267.3107  -150.3886 C0            1 RES     
    5526 C0         217.9362  -268.0532  -149.0492 C0            1 RES     
    5527 C0         217.5304  -269.5419  -149.1054 C0            1 RES     
    5528 C0         216.1374  -269.9162  -149.6549 C0            1 RES     
    5529 C0         216.0431  -269.9203  -151.1945 C0            1 RES     
    5530 C0         214.6872  -270.3873  -151.7656 C0            1 RES     
    5531 C0         214.4346  -271.9132  -151.8538 C0            1 RES     
    5532 C0         214.2893  -272.7119  -150.5494 C0            1 RES     
    5533 C0         213.1767  -272.1800  -149.6482 C0            1 RES     
    5534 H6         221.0937  -261.2182  -153.3145 H6            1 RES     
    5535 H6         222.2230  -260.1702  -152.4083 H6            1 RES     
    5536 H6         221.0433  -260.2267  -150.4123 H6            1 RES     
    5537 H6         219.6206  -261.0757  -151.0536 H6            1 RES     
    5538 H6         222.4414  -262.2793  -150.7708 H6            1 RES     
    5539 H6         221.0937  -262.3871  -149.5999 H6            1 RES     
    5540 H6         221.1242  -263.7492  -152.3568 H6            1 RES     
    5541 H6         221.2219  -264.4503  -150.7066 H6            1 RES     
    5542 H6         218.8416  -263.2997  -150.3074 H6            1 RES     
    5543 H6         218.8871  -263.0707  -152.0869 H6            1 RES     
    5544 H6         219.1381  -265.6041  -152.3462 H6            1 RES     
    5545 H6         217.5744  -264.9684  -151.7216 H6            1 RES     
    5546 H6         219.7609  -266.0965  -149.8756 H6            1 RES     
    5547 H6         218.1681  -265.3914  -149.3991 H6            1 RES     
    5548 H6         217.0060  -267.1338  -150.7670 H6            1 RES     
    5549 H6         218.6199  -267.9021  -151.1222 H6            1 RES     
    5550 H6         218.9421  -268.0365  -148.5744 H6            1 RES     
    5551 H6         217.2385  -267.5001  -148.3812 H6            1 RES     
    5552 H6         218.3056  -270.1331  -149.6388 H6            1 RES     
    5553 H6         217.5444  -269.8723  -148.0423 H6            1 RES     
    5554 H6         215.3531  -269.2741  -149.1986 H6            1 RES     
    5555 H6         215.9666  -270.9417  -149.3042 H6            1 RES     
    5556 H6         216.1667  -268.8854  -151.5433 H6            1 RES     
    5557 H6         216.8578  -270.5271  -151.6454 H6            1 RES     
    5558 H6         214.6785  -270.0522  -152.8270 H6            1 RES     
    5559 H6         213.8509  -269.8588  -151.2609 H6            1 RES     
    5560 H6         213.4870  -272.0464  -152.4213 H6            1 RES     
    5561 H6         215.2464  -272.3761  -152.4565 H6            1 RES     
    5562 H6         214.0437  -273.7618  -150.8208 H6            1 RES     
    5563 H6         215.2466  -272.7607  -150.0021 H6            1 RES     
    5564 H6         212.2069  -272.1885  -150.1895 H6            1 RES     
    5565 H6         213.0885  -272.8263  -148.7498 H6            1 RES     
    5566 H6         213.3993  -271.1468  -149.3120 H6            1 RES     
    5567 C0         228.0763  -258.1863  -163.2093 C0            1 RES     
    5568 C1         227.5200  -257.4340  -161.9825 C1            1 RES     
    5569 C1         228.2750  -256.2175  -161.6179 C1            1 RES     
    5570 S2         228.1862  -256.1104  -159.8238 S2            1 RES     
    5571 C1         226.5514  -256.8436  -160.0561 C1            1 RES     
    5572 C1         226.4881  -257.6533  -161.1747 C1            1 RES     
    5573 C1         229.5093  -256.4734  -162.3451 C1            1 RES     
    5574 C1         229.4395  -257.5009  -163.2408 C1            1 RES     
    5575 C1         230.6266  -257.6590  -163.9786 C1            1 RES     
    5576 C1         231.5861  -256.6762  -163.6361 C1            1 RES     
    5577 S2         230.9461  -255.6533  -162.4408 S2            1 RES     
    5578 H3         225.7528  -258.4349  -161.2731 H3            1 RES     
    5579 H3         230.7775  -258.4262  -164.7277 H3            1 RES     
    5580 N4         233.5593  -257.6060  -164.7800 N4            1 RES     
    5581 C1         234.8407  -257.5648  -165.2520 C1            1 RES     
    5582 C1         235.6008  -256.3922  -165.1641 C1            1 RES     
    5583 C1         235.0188  -255.2702  -164.5877 C1            1 RES     
    5584 N4         235.6502  -254.0767  -164.4676 N4            1 RES     
    5585 S2         234.4993  -253.1427  -163.7392 S2            1 RES     
    5586 N4         233.2224  -254.1734  -163.5487 N4            1 RES     
    5587 C1         233.6911  -255.3317  -164.0837 C1            1 RES     
    5588 C1         232.9570  -256.5330  -164.1853 C1            1 RES     
    5589 H5         235.2782  -258.4507  -165.6939 H5            1 RES     
    5590 C0         227.2828  -257.7889  -164.4963 C0            1 RES     
    5591 C0         225.8175  -258.2354  -164.4785 C0            1 RES     
    5592 C0         224.9473  -257.7487  -165.6415 C0            1 RES     
    5593 C0         224.7776  -256.2256  -165.7588 C0            1 RES     
    5594 C0         224.4430  -255.5407  -164.4178 C0            1 RES     
    5595 C0         223.9964  -254.0861  -164.6081 C0            1 RES     
    5596 C0         222.5246  -254.0205  -165.0453 C0            1 RES     
    5597 C0         222.0764  -252.5815  -165.3037 C0            1 RES     
    5598 C0         220.5608  -252.5255  -165.5188 C0            1 RES     
    5599 C0         219.9967  -251.2047  -166.0795 C0            1 RES     
    5600 C0         220.2574  -249.9061  -165.2903 C0            1 RES     
    5601 C0         221.6563  -249.2985  -165.5377 C0            1 RES     
    5602 C0         221.9281  -247.9621  -164.8185 C0            1 RES     
    5603 C0         221.3678  -246.6747  -165.4698 C0            1 RES     
    5604 C0         219.8447  -246.4850  -165.5244 C0            1 RES     
    5605 C0         219.1876  -246.5616  -164.1476 C0            1 RES     
    5606 H6         227.3046  -256.6812  -164.5752 H6            1 RES     
    5607 H6         227.7839  -258.1971  -165.4011 H6            1 RES     
    5608 H6         225.7966  -259.3229  -164.5275 H6            1 RES     
    5609 H6         225.3286  -257.9137  -163.5405 H6            1 RES     
    5610 H6         225.3260  -258.1488  -166.6069 H6            1 RES     
    5611 H6         223.9372  -258.1843  -165.4707 H6            1 RES     
    5612 H6         225.7054  -255.7635  -166.1603 H6            1 RES     
    5613 H6         223.9741  -256.0639  -166.5067 H6            1 RES     
    5614 H6         223.6558  -256.0896  -163.8561 H6            1 RES     
    5615 H6         225.3681  -255.5474  -163.8023 H6            1 RES     
    5616 H6         224.6742  -253.5706  -165.3240 H6            1 RES     
    5617 H6         224.0663  -253.5632  -163.6289 H6            1 RES     
    5618 H6         222.3506  -254.6091  -165.9698 H6            1 RES     
    5619 H6         221.9096  -254.4599  -164.2277 H6            1 RES     
    5620 H6         222.3256  -251.9707  -164.4124 H6            1 RES     
    5621 H6         222.6147  -252.2063  -166.2015 H6            1 RES     
    5622 H6         220.2705  -253.3122  -166.2501 H6            1 RES     
    5623 H6         220.0648  -252.7645  -164.5513 H6            1 RES     
    5624 H6         220.3236  -251.0598  -167.1319 H6            1 RES     
    5625 H6         218.8945  -251.3588  -166.1002 H6            1 RES     
    5626 H6         220.0585  -250.0624  -164.2080 H6            1 RES     
    5627 H6         219.5098  -249.1965  -165.6648 H6            1 RES     
    5628 H6         222.4100  -249.9950  -165.1449 H6            1 RES     
    5629 H6         221.8537  -249.1766  -166.6248 H6            1 RES     
    5630 H6         223.0321  -247.8223  -164.8511 H6            1 RES     
    5631 H6         221.6509  -248.0382  -163.7460 H6            1 RES     
    5632 H6         221.7817  -245.8202  -164.8903 H6            1 RES     
    5633 H6         221.7656  -246.5943  -166.5052 H6            1 RES     
    5634 H6         219.6435  -245.4787  -165.9514 H6            1 RES     
    5635 H6         219.3790  -247.2033  -166.2210 H6            1 RES     
    5636 H6         219.6245  -245.7972  -163.4708 H6            1 RES     
    5637 H6         218.0987  -246.3701  -164.2472 H6            1 RES     
    5638 H6         219.3226  -247.5666  -163.6987 H6            1 RES     
    5639 C0         228.2720  -259.7483  -163.0283 C0            1 RES     
    5640 C0         227.1305  -260.4822  -162.2824 C0            1 RES     
    5641 C0         227.1813  -262.0247  -162.2347 C0            1 RES     
    5642 C0         226.7540  -262.7974  -163.5073 C0            1 RES     
    5643 C0         225.3990  -262.3170  -164.0675 C0            1 RES     
    5644 C0         224.7231  -263.2714  -165.0626 C0            1 RES     
    5645 C0         223.9945  -264.4168  -164.3406 C0            1 RES     
    5646 C0         223.2385  -265.3187  -165.3273 C0            1 RES     
    5647 C0         222.3722  -266.3342  -164.5704 C0            1 RES     
    5648 C0         221.7617  -267.4843  -165.4002 C0            1 RES     
    5649 C0         220.7585  -267.1445  -166.5231 C0            1 RES     
    5650 C0         221.4130  -266.6605  -167.8332 C0            1 RES     
    5651 C0         220.4339  -266.4098  -168.9999 C0            1 RES     
    5652 C0         219.9627  -267.6393  -169.8161 C0            1 RES     
    5653 C0         219.0592  -268.6757  -169.1306 C0            1 RES     
    5654 C0         217.7789  -268.0651  -168.5639 C0            1 RES     
    5655 H6         228.4461  -260.1945  -164.0313 H6            1 RES     
    5656 H6         229.1841  -259.9479  -162.4222 H6            1 RES     
    5657 H6         227.2085  -260.1547  -161.2251 H6            1 RES     
    5658 H6         226.1313  -260.1964  -162.6371 H6            1 RES     
    5659 H6         228.1778  -262.3724  -161.8873 H6            1 RES     
    5660 H6         226.4427  -262.3204  -161.4562 H6            1 RES     
    5661 H6         227.5217  -262.7229  -164.3076 H6            1 RES     
    5662 H6         226.6800  -263.8637  -163.2056 H6            1 RES     
    5663 H6         224.6744  -262.0959  -163.2529 H6            1 RES     
    5664 H6         225.6087  -261.3864  -164.6112 H6            1 RES     
    5665 H6         225.4546  -263.6392  -165.8151 H6            1 RES     
    5666 H6         223.9405  -262.6908  -165.5977 H6            1 RES     
    5667 H6         224.7109  -265.0288  -163.7535 H6            1 RES     
    5668 H6         223.2562  -263.9649  -163.6397 H6            1 RES     
    5669 H6         222.5757  -264.6768  -165.9391 H6            1 RES     
    5670 H6         223.9783  -265.8400  -165.9719 H6            1 RES     
    5671 H6         223.0099  -266.8264  -163.8033 H6            1 RES     
    5672 H6         221.5630  -265.7876  -164.0363 H6            1 RES     
    5673 H6         222.5656  -268.1324  -165.8110 H6            1 RES     
    5674 H6         221.2012  -268.0942  -164.6564 H6            1 RES     
    5675 H6         219.9936  -266.4254  -166.1577 H6            1 RES     
    5676 H6         220.2449  -268.0912  -166.7328 H6            1 RES     
    5677 H6         221.8871  -265.6889  -167.6352 H6            1 RES     
    5678 H6         222.2083  -267.3611  -168.1680 H6            1 RES     
    5679 H6         220.9991  -265.7982  -169.7385 H6            1 RES     
    5680 H6         219.5792  -265.7863  -168.6620 H6            1 RES     
    5681 H6         219.3965  -267.2439  -170.6884 H6            1 RES     
    5682 H6         220.8560  -268.1670  -170.2162 H6            1 RES     
    5683 H6         218.7742  -269.4334  -169.8928 H6            1 RES     
    5684 H6         219.6079  -269.2294  -168.3492 H6            1 RES     
    5685 H6         217.2055  -267.5592  -169.3695 H6            1 RES     
    5686 H6         217.1481  -268.8682  -168.1285 H6            1 RES     
    5687 H6         218.0099  -267.3328  -167.7637 H6            1 RES     
    5688 C0         239.7473  -257.1527  -168.3773 C0            1 RES     
    5689 C1         238.8308  -256.6463  -167.2441 C1            1 RES     
    5690 C1         239.5398  -255.9549  -166.1478 C1            1 RES     
    5691 S2         238.6270  -256.3560  -164.6499 S2            1 RES     
    5692 C1         237.1952  -256.3384  -165.7516 C1            1 RES     
    5693 C1         237.5181  -256.7011  -167.0459 C1            1 RES     
    5694 C1         240.8949  -256.4174  -166.4083 C1            1 RES     
    5695 C1         241.0634  -257.0357  -167.6134 C1            1 RES     
    5696 C1         242.4020  -257.3915  -167.8582 C1            1 RES     
    5697 C1         243.2513  -256.9747  -166.8053 C1            1 RES     
    5698 S2         242.3309  -256.1895  -165.6133 S2            1 RES     
    5699 H3         236.7833  -257.0941  -167.7291 H3            1 RES     
    5700 H3         242.7401  -257.9037  -168.7503 H3            1 RES     
    5701 N4         245.3072  -258.1795  -167.4284 N4            1 RES     
    5702 C1         246.6384  -258.4719  -167.3337 C1            1 RES     
    5703 C1         247.4756  -257.7396  -166.4833 C1            1 RES     
    5704 C1         246.9200  -256.7059  -165.7400 C1            1 RES     
    5705 N4         247.6357  -255.9176  -164.9010 N4            1 RES     
    5706 S2         246.4835  -254.8870  -164.3197 S2            1 RES     
    5707 N4         245.0982  -255.3872  -165.0678 N4            1 RES     
    5708 C1         245.5299  -256.4239  -165.8337 C1            1 RES     
    5709 C1         244.7159  -257.1870  -166.6983 C1            1 RES     
    5710 H5         247.0520  -259.2839  -167.9178 H5            1 RES     
    5711 C0         239.7604  -256.1331  -169.5623 C0            1 RES     
    5712 C0         238.4100  -255.9978  -170.2729 C0            1 RES     
    5713 C0         238.3154  -254.9079  -171.3451 C0            1 RES     
    5714 C0         238.5226  -253.4662  -170.8543 C0            1 RES     
    5715 C0         237.7283  -253.1339  -169.5744 C0            1 RES     
    5716 C0         237.7198  -251.6301  -169.2742 C0            1 RES     
    5717 C0         236.6811  -250.9062  -170.1451 C0            1 RES     
    5718 C0         236.7009  -249.3955  -169.9086 C0            1 RES     
    5719 C0         235.5165  -248.7294  -170.6158 C0            1 RES     
    5720 C0         235.5586  -247.1919  -170.7221 C0            1 RES     
    5721 C0         235.6573  -246.3725  -169.4198 C0            1 RES     
    5722 C0         237.0920  -246.2737  -168.8547 C0            1 RES     
    5723 C0         237.2411  -245.4044  -167.5902 C0            1 RES     
    5724 C0         237.3232  -243.8711  -167.7843 C0            1 RES     
    5725 C0         236.0817  -243.1314  -168.3044 C0            1 RES     
    5726 C0         234.8458  -243.3645  -167.4376 C0            1 RES     
    5727 H6         240.0324  -255.1396  -169.1470 H6            1 RES     
    5728 H6         240.5426  -256.4102  -170.3023 H6            1 RES     
    5729 H6         238.2038  -256.9362  -170.7850 H6            1 RES     
    5730 H6         237.6054  -255.8113  -169.5378 H6            1 RES     
    5731 H6         239.0234  -255.1153  -172.1765 H6            1 RES     
    5732 H6         237.2839  -254.9741  -171.7583 H6            1 RES     
    5733 H6         239.5992  -253.2786  -170.6507 H6            1 RES     
    5734 H6         238.2235  -252.8098  -171.6973 H6            1 RES     
    5735 H6         236.6786  -253.4967  -169.6311 H6            1 RES     
    5736 H6         238.2250  -253.6587  -168.7304 H6            1 RES     
    5737 H6         238.7431  -251.2115  -169.3994 H6            1 RES     
    5738 H6         237.4134  -251.4821  -168.2154 H6            1 RES     
    5739 H6         236.8595  -251.0903  -171.2248 H6            1 RES     
    5740 H6         235.6780  -251.3104  -169.8806 H6            1 RES     
    5741 H6         236.6071  -249.2095  -168.8195 H6            1 RES     
    5742 H6         237.6641  -248.9963  -170.2949 H6            1 RES     
    5743 H6         235.4644  -249.1029  -171.6625 H6            1 RES     
    5744 H6         234.5827  -249.0443  -170.0982 H6            1 RES     
    5745 H6         236.3699  -246.8735  -171.4118 H6            1 RES     
    5746 H6         234.5945  -246.9196  -171.2072 H6            1 RES     
    5747 H6         234.9391  -246.7566  -168.6634 H6            1 RES     
    5748 H6         235.3342  -245.3626  -169.6997 H6            1 RES     
    5749 H6         237.4141  -247.2797  -168.5518 H6            1 RES     
    5750 H6         237.8045  -245.9181  -169.6303 H6            1 RES     
    5751 H6         238.2294  -245.6744  -167.1546 H6            1 RES     
    5752 H6         236.4761  -245.6861  -166.8363 H6            1 RES     
    5753 H6         237.5669  -243.4380  -166.7891 H6            1 RES     
    5754 H6         238.1745  -243.6404  -168.4616 H6            1 RES     
    5755 H6         236.3095  -242.0435  -168.3018 H6            1 RES     
    5756 H6         235.8761  -243.3907  -169.3572 H6            1 RES     
    5757 H6         235.0452  -243.0481  -166.3919 H6            1 RES     
    5758 H6         233.9980  -242.7685  -167.8356 H6            1 RES     
    5759 H6         234.5512  -244.4335  -167.4457 H6            1 RES     
    5760 C0         239.5243  -258.6570  -168.8226 C0            1 RES     
    5761 C0         238.0472  -259.1080  -168.9350 C0            1 RES     
    5762 C0         237.7677  -260.5030  -169.5352 C0            1 RES     
    5763 C0         237.8597  -260.6548  -171.0739 C0            1 RES     
    5764 C0         237.0605  -259.5709  -171.8270 C0            1 RES     
    5765 C0         236.7716  -259.8741  -173.3043 C0            1 RES     
    5766 C0         235.5795  -260.8323  -173.4615 C0            1 RES     
    5767 C0         235.2281  -261.0624  -174.9388 C0            1 RES     
    5768 C0         233.9267  -261.8658  -175.0619 C0            1 RES     
    5769 C0         233.5767  -262.4144  -176.4621 C0            1 RES     
    5770 C0         233.3204  -261.4176  -177.6124 C0            1 RES     
    5771 C0         234.6016  -260.8433  -178.2511 C0            1 RES     
    5772 C0         234.3695  -259.9209  -179.4669 C0            1 RES     
    5773 C0         234.1169  -260.5945  -180.8389 C0            1 RES     
    5774 C0         232.8136  -261.3819  -181.0436 C0            1 RES     
    5775 C0         231.5650  -260.5420  -180.7813 C0            1 RES     
    5776 H6         240.0661  -258.8193  -169.7794 H6            1 RES     
    5777 H6         239.9769  -259.3447  -168.0733 H6            1 RES     
    5778 H6         237.6722  -259.1585  -167.8919 H6            1 RES     
    5779 H6         237.4167  -258.3864  -169.4713 H6            1 RES     
    5780 H6         238.3873  -261.2761  -169.0325 H6            1 RES     
    5781 H6         236.7053  -260.7237  -169.2867 H6            1 RES     
    5782 H6         238.9144  -260.6336  -171.4242 H6            1 RES     
    5783 H6         237.4445  -261.6583  -171.3062 H6            1 RES     
    5784 H6         236.0936  -259.3509  -171.3231 H6            1 RES     
    5785 H6         237.6812  -258.6655  -171.8033 H6            1 RES     
    5786 H6         237.6863  -260.2445  -173.8171 H6            1 RES     
    5787 H6         236.4702  -258.9180  -173.7850 H6            1 RES     
    5788 H6         235.7933  -261.8072  -172.9754 H6            1 RES     
    5789 H6         234.7000  -260.3700  -172.9581 H6            1 RES     
    5790 H6         235.0779  -260.0734  -175.4130 H6            1 RES     
    5791 H6         236.0685  -261.6031  -175.4246 H6            1 RES     
    5792 H6         234.0103  -262.7592  -174.4044 H6            1 RES     
    5793 H6         233.0846  -261.2449  -174.6820 H6            1 RES     
    5794 H6         234.3354  -263.1594  -176.7852 H6            1 RES     
    5795 H6         232.6223  -262.9674  -176.3113 H6            1 RES     
    5796 H6         232.6306  -260.6108  -177.2823 H6            1 RES     
    5797 H6         232.7965  -262.0044  -178.3772 H6            1 RES     
    5798 H6         235.1021  -260.2165  -177.4997 H6            1 RES     
    5799 H6         235.3064  -261.6539  -178.5368 H6            1 RES     
    5800 H6         235.3258  -259.3697  -179.6108 H6            1 RES     
    5801 H6         233.5974  -259.1577  -179.2332 H6            1 RES     
    5802 H6         234.1260  -259.7818  -181.5986 H6            1 RES     
    5803 H6         234.9705  -261.2690  -181.0691 H6            1 RES     
    5804 H6         232.7864  -261.7227  -182.1016 H6            1 RES     
    5805 H6         232.8022  -262.3013  -180.4330 H6            1 RES     
    5806 H6         231.5575  -259.6487  -181.4413 H6            1 RES     
    5807 H6         230.6602  -261.1492  -180.9939 H6            1 RES     
    5808 H6         231.5228  -260.2151  -179.7224 H6            1 RES     
    5809 C0         252.4151  -258.9791  -167.9535 C0            1 RES     
    5810 C1         251.1870  -258.5308  -167.1342 C1            1 RES     
    5811 C1         251.4047  -258.5017  -165.6732 C1            1 RES     
    5812 S2         249.8286  -258.9638  -164.9380 S2            1 RES     
    5813 C1         249.1325  -258.1012  -166.3647 C1            1 RES     
    5814 C1         249.9573  -258.1584  -167.4725 C1            1 RES     
    5815 C1         252.5998  -259.3283  -165.5916 C1            1 RES     
    5816 C1         253.1998  -259.5811  -166.7911 C1            1 RES     
    5817 C1         254.3941  -260.3119  -166.6570 C1            1 RES     
    5818 C1         254.6993  -260.5638  -165.2979 C1            1 RES     
    5819 S2         253.4939  -259.8852  -164.3124 S2            1 RES     
    5820 H3         249.5780  -258.0360  -168.4738 H3            1 RES     
    5821 H3         255.0105  -260.6251  -167.4904 H3            1 RES     
    5822 N4         256.5235  -262.1950  -165.5773 N4            1 RES     
    5823 C1         257.5614  -262.9671  -165.1379 C1            1 RES     
    5824 C1         258.0144  -262.8764  -163.8162 C1            1 RES     
    5825 C1         257.3844  -261.9794  -162.9628 C1            1 RES     
    5826 N4         257.7497  -261.7915  -161.6710 N4            1 RES     
    5827 S2         256.6856  -260.6317  -161.1707 S2            1 RES     
    5828 N4         255.7594  -260.3475  -162.5088 N4            1 RES     
    5829 C1         256.2936  -261.1952  -163.4273 C1            1 RES     
    5830 C1         255.8612  -261.3175  -164.7655 C1            1 RES     
    5831 H5         258.0368  -263.6633  -165.8168 H5            1 RES     
    5832 C0         253.1913  -257.7345  -168.4942 C0            1 RES     
    5833 C0         252.4008  -256.9127  -169.5173 C0            1 RES     
    5834 C0         253.0446  -255.5999  -169.9741 C0            1 RES     
    5835 C0         253.2680  -254.5468  -168.8771 C0            1 RES     
    5836 C0         252.0405  -254.3401  -167.9662 C0            1 RES     
    5837 C0         252.1825  -253.0973  -167.0792 C0            1 RES     
    5838 C0         251.8501  -251.8223  -167.8700 C0            1 RES     
    5839 C0         252.0480  -250.5649  -167.0225 C0            1 RES     
    5840 C0         251.5014  -249.3360  -167.7558 C0            1 RES     
    5841 C0         251.8876  -247.9622  -167.1723 C0            1 RES     
    5842 C0         251.5090  -247.6579  -165.7090 C0            1 RES     
    5843 C0         252.4868  -248.2608  -164.6756 C0            1 RES     
    5844 C0         252.1792  -247.9197  -163.2040 C0            1 RES     
    5845 C0         252.6408  -246.5383  -162.6804 C0            1 RES     
    5846 C0         251.9701  -245.2786  -163.2482 C0            1 RES     
    5847 C0         250.4518  -245.2885  -163.0814 C0            1 RES     
    5848 H6         253.4191  -257.0785  -167.6274 H6            1 RES     
    5849 H6         254.1611  -258.0469  -168.9393 H6            1 RES     
    5850 H6         252.2864  -257.5155  -170.4168 H6            1 RES     
    5851 H6         251.3966  -256.6707  -169.1231 H6            1 RES     
    5852 H6         254.0081  -255.7968  -170.4922 H6            1 RES     
    5853 H6         252.3458  -255.1602  -170.7207 H6            1 RES     
    5854 H6         254.1293  -254.8340  -168.2357 H6            1 RES     
    5855 H6         253.5427  -253.6097  -169.4039 H6            1 RES     
    5856 H6         251.0980  -254.2606  -168.5510 H6            1 RES     
    5857 H6         251.9602  -255.2335  -167.3104 H6            1 RES     
    5858 H6         253.2001  -253.0643  -166.6307 H6            1 RES     
    5859 H6         251.4426  -253.1664  -166.2517 H6            1 RES     
    5860 H6         252.4833  -251.7321  -168.7769 H6            1 RES     
    5861 H6         250.7858  -251.8910  -168.1897 H6            1 RES     
    5862 H6         251.4832  -250.6870  -166.0762 H6            1 RES     
    5863 H6         253.1354  -250.4503  -166.8204 H6            1 RES     
    5864 H6         251.8845  -249.3387  -168.8003 H6            1 RES     
    5865 H6         250.3929  -249.4257  -167.8026 H6            1 RES     
    5866 H6         252.9741  -247.7740  -167.3111 H6            1 RES     
    5867 H6         251.3468  -247.2269  -167.8094 H6            1 RES     
    5868 H6         250.4575  -247.9576  -165.5091 H6            1 RES     
    5869 H6         251.5627  -246.5656  -165.6277 H6            1 RES     
    5870 H6         252.4221  -249.3560  -164.7367 H6            1 RES     
    5871 H6         253.5371  -247.9784  -164.9057 H6            1 RES     
    5872 H6         252.7648  -248.6472  -162.5980 H6            1 RES     
    5873 H6         251.1087  -248.1112  -162.9795 H6            1 RES     
    5874 H6         252.4580  -246.5378  -161.5831 H6            1 RES     
    5875 H6         253.7386  -246.4459  -162.8317 H6            1 RES     
    5876 H6         252.3757  -244.4017  -162.6988 H6            1 RES     
    5877 H6         252.2468  -245.1226  -164.3051 H6            1 RES     
    5878 H6         250.1842  -245.3897  -162.0083 H6            1 RES     
    5879 H6         250.0320  -244.3354  -163.4659 H6            1 RES     
    5880 H6         249.9952  -246.1228  -163.6518 H6            1 RES     
    5881 C0         252.1442  -260.0952  -169.0452 C0            1 RES     
    5882 C0         250.8451  -259.9212  -169.8697 C0            1 RES     
    5883 C0         250.6211  -260.8744  -171.0636 C0            1 RES     
    5884 C0         251.4060  -260.5891  -172.3680 C0            1 RES     
    5885 C0         251.2926  -259.1184  -172.8205 C0            1 RES     
    5886 C0         251.6924  -258.8457  -174.2777 C0            1 RES     
    5887 C0         250.5600  -259.2106  -175.2517 C0            1 RES     
    5888 C0         250.9206  -258.8506  -176.7006 C0            1 RES     
    5889 C0         249.7084  -259.0488  -177.6202 C0            1 RES     
    5890 C0         249.9712  -258.9933  -179.1407 C0            1 RES     
    5891 C0         250.4958  -257.6807  -179.7607 C0            1 RES     
    5892 C0         252.0102  -257.4532  -179.5767 C0            1 RES     
    5893 C0         252.5722  -256.1959  -180.2739 C0            1 RES     
    5894 C0         252.8807  -256.2947  -181.7888 C0            1 RES     
    5895 C0         251.7090  -256.4540  -182.7698 C0            1 RES     
    5896 C0         250.6778  -255.3336  -182.6501 C0            1 RES     
    5897 H6         253.0341  -260.1546  -169.7085 H6            1 RES     
    5898 H6         252.0397  -261.0883  -168.5534 H6            1 RES     
    5899 H6         250.0154  -260.1360  -169.1650 H6            1 RES     
    5900 H6         250.7019  -258.8958  -170.2357 H6            1 RES     
    5901 H6         250.7610  -261.9315  -170.7513 H6            1 RES     
    5902 H6         249.5494  -260.7547  -171.3398 H6            1 RES     
    5903 H6         252.4809  -260.8523  -172.2640 H6            1 RES     
    5904 H6         250.9661  -261.2555  -173.1400 H6            1 RES     
    5905 H6         250.2663  -258.7194  -172.6625 H6            1 RES     
    5906 H6         251.9891  -258.5523  -172.1880 H6            1 RES     
    5907 H6         252.6488  -259.3558  -174.5262 H6            1 RES     
    5908 H6         251.8501  -257.7498  -174.3776 H6            1 RES     
    5909 H6         250.3209  -260.2928  -175.1874 H6            1 RES     
    5910 H6         249.6561  -258.6294  -174.9588 H6            1 RES     
    5911 H6         251.2112  -257.7826  -176.7258 H6            1 RES     
    5912 H6         251.7673  -259.4919  -177.0266 H6            1 RES     
    5913 H6         249.2918  -260.0620  -177.4268 H6            1 RES     
    5914 H6         248.9264  -258.3049  -177.3482 H6            1 RES     
    5915 H6         250.6305  -259.8332  -179.4490 H6            1 RES     
    5916 H6         248.9741  -259.1777  -179.6002 H6            1 RES     
    5917 H6         249.9042  -256.8135  -179.3951 H6            1 RES     
    5918 H6         250.2985  -257.7826  -180.8352 H6            1 RES     
    5919 H6         252.2016  -257.3035  -178.5048 H6            1 RES     
    5920 H6         252.5926  -258.3422  -179.9018 H6            1 RES     
    5921 H6         253.5674  -256.0157  -179.8088 H6            1 RES     
    5922 H6         251.9477  -255.3087  -180.0366 H6            1 RES     
    5923 H6         253.4099  -255.3565  -182.0674 H6            1 RES     
    5924 H6         253.5906  -257.1342  -181.9556 H6            1 RES     
    5925 H6         252.1253  -256.4336  -183.8006 H6            1 RES     
    5926 H6         251.2284  -257.4416  -182.6610 H6            1 RES     
    5927 H6         251.1608  -254.3476  -182.8178 H6            1 RES     
    5928 H6         249.8863  -255.4770  -183.4153 H6            1 RES     
    5929 H6         250.1990  -255.3413  -181.6497 H6            1 RES     
    5930 C0         262.7066  -265.3415  -163.7590 C0            1 RES     
    5931 C1         261.3503  -264.7385  -163.3380 C1            1 RES     
    5932 C1         260.8439  -265.2224  -162.0371 C1            1 RES     
    5933 S2         259.0527  -265.2715  -162.2011 S2            1 RES     
    5934 C1         259.3064  -263.8355  -163.2676 C1            1 RES     
    5935 C1         260.5313  -263.8610  -163.9078 C1            1 RES     
    5936 C1         261.6676  -266.4127  -161.8862 C1            1 RES     
    5937 C1         262.7058  -266.5019  -162.7676 C1            1 RES     
    5938 C1         263.5222  -267.6229  -162.5326 C1            1 RES     
    5939 C1         263.0848  -268.3568  -161.4040 C1            1 RES     
    5940 S2         261.7134  -267.6076  -160.7389 S2            1 RES     
    5941 H3         260.7091  -263.3197  -164.8225 H3            1 RES     
    5942 H3         264.3877  -267.8791  -163.1309 H3            1 RES     
    5943 N4         264.4633  -270.3813  -161.6655 N4            1 RES     
    5944 C1         264.9919  -271.5715  -161.2526 C1            1 RES     
    5945 C1         264.7656  -272.0458  -159.9548 C1            1 RES     
    5946 C1         263.9926  -271.2748  -159.0958 C1            1 RES     
    5947 N4         263.7244  -271.6225  -157.8134 N4            1 RES     
    5948 S2         262.7996  -270.3570  -157.2929 S2            1 RES     
    5949 N4         262.7014  -269.3740  -158.6169 N4            1 RES     
    5950 C1         263.4331  -270.0473  -159.5438 C1            1 RES     
    5951 C1         263.6787  -269.6034  -160.8610 C1            1 RES     
    5952 H5         265.5881  -272.1600  -161.9379 H5            1 RES     
    5953 C0         263.8722  -264.3664  -163.3921 C0            1 RES     
    5954 C0         263.8442  -263.0509  -164.1766 C0            1 RES     
    5955 C0         264.8695  -261.9920  -163.7594 C0            1 RES     
    5956 C0         264.7414  -261.4663  -162.3208 C0            1 RES     
    5957 C0         263.2948  -261.1039  -161.9268 C0            1 RES     
    5958 C0         263.2342  -260.3191  -160.6107 C0            1 RES     
    5959 C0         263.5759  -258.8389  -160.8424 C0            1 RES     
    5960 C0         263.5849  -258.0501  -159.5324 C0            1 RES     
    5961 C0         263.7065  -256.5494  -159.8143 C0            1 RES     
    5962 C0         264.0258  -255.6487  -158.6043 C0            1 RES     
    5963 C0         263.0611  -255.6725  -157.4018 C0            1 RES     
    5964 C0         263.2872  -256.8662  -156.4471 C0            1 RES     
    5965 C0         262.3865  -256.8859  -155.1960 C0            1 RES     
    5966 C0         262.8004  -255.9885  -154.0048 C0            1 RES     
    5967 C0         262.7427  -254.4640  -154.1820 C0            1 RES     
    5968 C0         261.3607  -253.9675  -154.6023 C0            1 RES     
    5969 H6         263.7805  -264.1255  -162.3118 H6            1 RES     
    5970 H6         264.8548  -264.8654  -163.5398 H6            1 RES     
    5971 H6         264.0589  -263.2767  -165.2198 H6            1 RES     
    5972 H6         262.8427  -262.5866  -164.1136 H6            1 RES     
    5973 H6         265.9041  -262.3651  -163.9206 H6            1 RES     
    5974 H6         264.7136  -261.1286  -164.4447 H6            1 RES     
    5975 H6         265.1165  -262.2233  -161.5983 H6            1 RES     
    5976 H6         265.4109  -260.5839  -162.2566 H6            1 RES     
    5977 H6         262.7826  -260.5174  -162.7208 H6            1 RES     
    5978 H6         262.7386  -262.0566  -161.7946 H6            1 RES     
    5979 H6         263.8978  -260.7935  -159.8541 H6            1 RES     
    5980 H6         262.1915  -260.3537  -160.2254 H6            1 RES     
    5981 H6         264.5693  -258.7234  -161.3234 H6            1 RES     
    5982 H6         262.8038  -258.4169  -161.5247 H6            1 RES     
    5983 H6         262.6250  -258.2304  -159.0075 H6            1 RES     
    5984 H6         264.4419  -258.4054  -158.9193 H6            1 RES     
    5985 H6         264.5335  -256.3841  -160.5400 H6            1 RES     
    5986 H6         262.7621  -256.2100  -160.2958 H6            1 RES     
    5987 H6         265.0593  -255.8383  -158.2424 H6            1 RES     
    5988 H6         264.0103  -254.6143  -159.0151 H6            1 RES     
    5989 H6         262.0067  -255.6123  -157.7480 H6            1 RES     
    5990 H6         263.2809  -254.7514  -156.8488 H6            1 RES     
    5991 H6         263.0478  -257.7920  -156.9885 H6            1 RES     
    5992 H6         264.3517  -256.9326  -156.1336 H6            1 RES     
    5993 H6         262.4568  -257.9207  -154.7912 H6            1 RES     
    5994 H6         261.3251  -256.7304  -155.4826 H6            1 RES     
    5995 H6         262.1194  -256.2444  -153.1633 H6            1 RES     
    5996 H6         263.8310  -256.2632  -153.6900 H6            1 RES     
    5997 H6         262.9981  -253.9993  -153.2051 H6            1 RES     
    5998 H6         263.5154  -254.1161  -154.8890 H6            1 RES     
    5999 H6         260.5987  -254.2751  -153.8552 H6            1 RES     
    6000 H6         261.3705  -252.8593  -154.6670 H6            1 RES     
    6001 H6         261.0799  -254.3697  -155.5969 H6            1 RES     
    6002 C0         262.7792  -265.9069  -165.2375 C0            1 RES     
    6003 C0         262.0947  -265.0363  -166.3196 C0            1 RES     
    6004 C0         262.2881  -265.4449  -167.7961 C0            1 RES     
    6005 C0         263.6395  -265.0954  -168.4673 C0            1 RES     
    6006 C0         264.0449  -263.6219  -168.2555 C0            1 RES     
    6007 C0         265.1371  -263.0980  -169.1991 C0            1 RES     
    6008 C0         264.5619  -262.7201  -170.5740 C0            1 RES     
    6009 C0         265.6335  -262.1073  -171.4878 C0            1 RES     
    6010 C0         264.9964  -261.5691  -172.7757 C0            1 RES     
    6011 C0         265.9592  -261.1684  -173.9143 C0            1 RES     
    6012 C0         266.9604  -260.0180  -173.6759 C0            1 RES     
    6013 C0         268.2137  -260.4241  -172.8739 C0            1 RES     
    6014 C0         269.2732  -259.3136  -172.7092 C0            1 RES     
    6015 C0         270.2424  -259.0675  -173.8924 C0            1 RES     
    6016 C0         269.6769  -258.4916  -175.1997 C0            1 RES     
    6017 C0         268.9546  -257.1609  -174.9989 C0            1 RES     
    6018 H6         263.8470  -266.0891  -165.4869 H6            1 RES     
    6019 H6         262.2613  -266.8908  -165.2924 H6            1 RES     
    6020 H6         261.0053  -265.1306  -166.1309 H6            1 RES     
    6021 H6         262.3466  -263.9706  -166.2372 H6            1 RES     
    6022 H6         262.0528  -266.5216  -167.9376 H6            1 RES     
    6023 H6         261.5256  -264.8666  -168.3646 H6            1 RES     
    6024 H6         264.4592  -265.7510  -168.1012 H6            1 RES     
    6025 H6         263.5021  -265.2961  -169.5509 H6            1 RES     
    6026 H6         263.1680  -262.9414  -168.3291 H6            1 RES     
    6027 H6         264.4492  -263.5624  -167.2364 H6            1 RES     
    6028 H6         265.9758  -263.8245  -169.2734 H6            1 RES     
    6029 H6         265.5333  -262.1583  -168.7566 H6            1 RES     
    6030 H6         264.1157  -263.6075  -171.0698 H6            1 RES     
    6031 H6         263.7608  -261.9630  -170.4136 H6            1 RES     
    6032 H6         266.1023  -261.2627  -170.9469 H6            1 RES     
    6033 H6         266.3897  -262.8868  -171.7222 H6            1 RES     
    6034 H6         264.3499  -262.3687  -173.2000 H6            1 RES     
    6035 H6         264.3414  -260.7066  -172.5186 H6            1 RES     
    6036 H6         266.5078  -262.0600  -174.2872 H6            1 RES     
    6037 H6         265.2890  -260.8319  -174.7372 H6            1 RES     
    6038 H6         266.4478  -259.1437  -173.2192 H6            1 RES     
    6039 H6         267.2853  -259.7196  -174.6805 H6            1 RES     
    6040 H6         267.8944  -260.6774  -171.8532 H6            1 RES     
    6041 H6         268.6950  -261.3262  -173.3097 H6            1 RES     
    6042 H6         269.9382  -259.6547  -171.8843 H6            1 RES     
    6043 H6         268.7976  -258.3719  -172.3622 H6            1 RES     
    6044 H6         271.0115  -258.3500  -173.5295 H6            1 RES     
    6045 H6         270.7667  -260.0189  -174.1295 H6            1 RES     
    6046 H6         270.5303  -258.3220  -175.8921 H6            1 RES     
    6047 H6         269.0210  -259.2204  -175.7065 H6            1 RES     
    6048 H6         269.6403  -256.4169  -174.5408 H6            1 RES     
    6049 H6         268.6146  -256.7732  -175.9822 H6            1 RES     
    6050 H6         268.0647  -257.2873  -174.3492 H6            1 RES     
    6051 C0         268.2771  -275.9528  -159.2469 C0            1 RES     
    6052 C1         267.0315  -275.0490  -159.1362 C1            1 RES     
    6053 C1         265.8817  -275.6745  -158.4510 C1            1 RES     
    6054 S2         264.4164  -275.0157  -159.2614 S2            1 RES     
    6055 C1         265.4232  -273.5261  -159.4386 C1            1 RES     
    6056 C1         266.7734  -273.8073  -159.5322 C1            1 RES     
    6057 C1         266.2833  -277.0709  -158.5334 C1            1 RES     
    6058 C1         267.5765  -277.2692  -158.9220 C1            1 RES     
    6059 C1         267.9453  -278.6265  -158.9078 C1            1 RES     
    6060 C1         266.8882  -279.4473  -158.4468 C1            1 RES     
    6061 S2         265.5414  -278.4808  -158.0772 S2            1 RES     
    6062 H3         267.4683  -273.1248  -159.9933 H3            1 RES     
    6063 H3         268.9227  -278.9926  -159.1965 H3            1 RES     
    6064 N4         267.7998  -281.6616  -159.0239 N4            1 RES     
    6065 C1         267.8234  -283.0273  -158.9971 C1            1 RES     
    6066 C1         266.9168  -283.7457  -158.2082 C1            1 RES     
    6067 C1         265.9942  -283.0354  -157.4505 C1            1 RES     
    6068 N4         265.0837  -283.6222  -156.6355 N4            1 RES     
    6069 S2         264.2891  -282.3201  -156.0023 S2            1 RES     
    6070 N4         265.0294  -281.0263  -156.7144 N4            1 RES     
    6071 C1         265.9680  -281.6152  -157.5016 C1            1 RES     
    6072 C1         266.8946  -280.9250  -158.3126 C1            1 RES     
    6073 H5         268.5471  -283.5630  -159.5978 H5            1 RES     
    6074 C0         269.2898  -275.6252  -158.1019 C0            1 RES     
    6075 C0         269.8970  -274.2221  -158.2000 C0            1 RES     
    6076 C0         270.7818  -273.7840  -157.0288 C0            1 RES     
    6077 C0         270.0866  -273.6965  -155.6608 C0            1 RES     
    6078 C0         268.7298  -272.9642  -155.7080 C0            1 RES     
    6079 C0         268.2015  -272.6365  -154.3062 C0            1 RES     
    6080 C0         268.8930  -271.3857  -153.7417 C0            1 RES     
    6081 C0         268.4280  -271.0780  -152.3178 C0            1 RES     
    6082 C0         268.9590  -269.7139  -151.8663 C0            1 RES     
    6083 C0         268.8293  -269.3912  -150.3643 C0            1 RES     
    6084 C0         267.4235  -269.4141  -149.7314 C0            1 RES     
    6085 C0         266.9283  -270.8320  -149.3682 C0            1 RES     
    6086 C0         265.5550  -270.8889  -148.6700 C0            1 RES     
    6087 C0         265.5147  -270.5981  -147.1504 C0            1 RES     
    6088 C0         265.8467  -269.1784  -146.6676 C0            1 RES     
    6089 C0         264.9606  -268.1117  -147.3079 C0            1 RES     
    6090 H6         268.7417  -275.6969  -157.1386 H6            1 RES     
    6091 H6         270.1049  -276.3811  -158.0784 H6            1 RES     
    6092 H6         270.5357  -274.1928  -159.0812 H6            1 RES     
    6093 H6         269.0995  -273.4650  -158.3152 H6            1 RES     
    6094 H6         271.6723  -274.4438  -156.9437 H6            1 RES     
    6095 H6         271.1439  -272.7628  -157.2843 H6            1 RES     
    6096 H6         269.9151  -274.7147  -155.2490 H6            1 RES     
    6097 H6         270.8011  -273.1804  -154.9868 H6            1 RES     
    6098 H6         268.7849  -272.0256  -156.3017 H6            1 RES     
    6099 H6         268.0048  -273.6416  -156.2081 H6            1 RES     
    6100 H6         268.3158  -273.5205  -153.6404 H6            1 RES     
    6101 H6         267.1175  -272.3998  -154.3827 H6            1 RES     
    6102 H6         269.9962  -271.5048  -153.7278 H6            1 RES     
    6103 H6         268.6400  -270.5302  -154.4080 H6            1 RES     
    6104 H6         267.3197  -271.0413  -152.3106 H6            1 RES     
    6105 H6         268.7997  -271.8851  -151.6493 H6            1 RES     
    6106 H6         270.0464  -269.6562  -152.0945 H6            1 RES     
    6107 H6         268.4463  -268.9277  -152.4647 H6            1 RES     
    6108 H6         269.5045  -270.0426  -149.7685 H6            1 RES     
    6109 H6         269.2137  -268.3510  -150.2685 H6            1 RES     
    6110 H6         266.6976  -268.8740  -150.3770 H6            1 RES     
    6111 H6         267.5267  -268.8436  -148.8006 H6            1 RES     
    6112 H6         266.8020  -271.4028  -150.2986 H6            1 RES     
    6113 H6         267.6773  -271.3715  -148.7486 H6            1 RES     
    6114 H6         265.2202  -271.9476  -148.7509 H6            1 RES     
    6115 H6         264.8132  -270.2797  -149.2281 H6            1 RES     
    6116 H6         264.4793  -270.8232  -146.8117 H6            1 RES     
    6117 H6         266.1933  -271.3096  -146.6309 H6            1 RES     
    6118 H6         265.6888  -269.1488  -145.5677 H6            1 RES     
    6119 H6         266.9142  -268.9451  -146.8222 H6            1 RES     
    6120 H6         263.8910  -268.3251  -147.0989 H6            1 RES     
    6121 H6         265.2156  -267.1174  -146.8850 H6            1 RES     
    6122 H6         265.1174  -268.0716  -148.4050 H6            1 RES     
    6123 C0         268.9361  -276.0435  -160.6851 C0            1 RES     
    6124 C0         269.0367  -274.7060  -161.4589 C0            1 RES     
    6125 C0         269.8286  -274.7029  -162.7845 C0            1 RES     
    6126 C0         271.3750  -274.6899  -162.6976 C0            1 RES     
    6127 C0         271.9078  -273.5988  -161.7456 C0            1 RES     
    6128 C0         273.3964  -273.2571  -161.9044 C0            1 RES     
    6129 C0         273.6346  -272.3085  -163.0908 C0            1 RES     
    6130 C0         275.1085  -271.8894  -163.1944 C0            1 RES     
    6131 C0         275.2834  -270.8023  -164.2630 C0            1 RES     
    6132 C0         276.7303  -270.4647  -164.6828 C0            1 RES     
    6133 C0         277.6978  -269.8844  -163.6293 C0            1 RES     
    6134 C0         278.3088  -270.9368  -162.6815 C0            1 RES     
    6135 C0         279.3535  -270.3912  -161.6848 C0            1 RES     
    6136 C0         280.7973  -270.1793  -162.2051 C0            1 RES     
    6137 C0         281.0500  -269.0794  -163.2476 C0            1 RES     
    6138 C0         280.5944  -267.6995  -162.7773 C0            1 RES     
    6139 H6         269.9344  -276.5207  -160.5796 H6            1 RES     
    6140 H6         268.3273  -276.7071  -161.3394 H6            1 RES     
    6141 H6         267.9951  -274.4471  -161.7405 H6            1 RES     
    6142 H6         269.4205  -273.8810  -160.8441 H6            1 RES     
    6143 H6         269.4852  -275.5261  -163.4469 H6            1 RES     
    6144 H6         269.5600  -273.7463  -163.2865 H6            1 RES     
    6145 H6         271.7744  -275.6759  -162.3753 H6            1 RES     
    6146 H6         271.7363  -274.4980  -163.7301 H6            1 RES     
    6147 H6         271.3244  -272.6560  -161.8362 H6            1 RES     
    6148 H6         271.7784  -273.9939  -160.7294 H6            1 RES     
    6149 H6         274.0087  -274.1830  -161.9697 H6            1 RES     
    6150 H6         273.7070  -272.7020  -160.9926 H6            1 RES     
    6151 H6         273.3167  -272.7835  -164.0425 H6            1 RES     
    6152 H6         273.0192  -271.3947  -162.9273 H6            1 RES     
    6153 H6         275.4158  -271.4739  -162.2153 H6            1 RES     
    6154 H6         275.7165  -272.7850  -163.4449 H6            1 RES     
    6155 H6         274.7769  -271.1477  -165.1912 H6            1 RES     
    6156 H6         274.7674  -269.8772  -163.9212 H6            1 RES     
    6157 H6         277.2049  -271.3428  -165.1716 H6            1 RES     
    6158 H6         276.6152  -269.6807  -165.4647 H6            1 RES     
    6159 H6         277.2106  -269.0596  -163.0654 H6            1 RES     
    6160 H6         278.5144  -269.4437  -164.2147 H6            1 RES     
    6161 H6         277.4979  -271.3444  -162.0615 H6            1 RES     
    6162 H6         278.7536  -271.7809  -163.2514 H6            1 RES     
    6163 H6         279.4623  -271.1781  -160.9050 H6            1 RES     
    6164 H6         278.9636  -269.4880  -161.1694 H6            1 RES     
    6165 H6         281.4221  -269.9333  -161.3180 H6            1 RES     
    6166 H6         281.1745  -271.1413  -162.6160 H6            1 RES     
    6167 H6         282.1449  -269.0373  -163.4368 H6            1 RES     
    6168 H6         280.5887  -269.3345  -164.2173 H6            1 RES     
    6169 H6         281.1075  -267.4277  -161.8304 H6            1 RES     
    6170 H6         280.8488  -266.9435  -163.5496 H6            1 RES     
    6171 H6         279.4970  -267.6776  -162.6183 H6            1 RES     
    6172 C0         268.8254  -288.6867  -158.0079 C0            1 RES     
    6173 C1         267.8816  -287.4664  -157.9852 C1            1 RES     
    6174 C1         266.4475  -287.8008  -158.1048 C1            1 RES     
    6175 S2         265.7081  -286.4454  -159.0290 S2            1 RES     
    6176 C1         266.9451  -285.4451  -158.1727 C1            1 RES     
    6177 C1         268.0915  -286.1589  -157.8773 C1            1 RES     
    6178 C1         266.5590  -289.1565  -158.6222 C1            1 RES     
    6179 C1         267.8138  -289.6893  -158.5564 C1            1 RES     
    6180 C1         267.8586  -291.0269  -158.9893 C1            1 RES     
    6181 C1         266.5731  -291.5017  -159.3438 C1            1 RES     
    6182 S2         265.4310  -290.2652  -159.1170 S2            1 RES     
    6183 H3         269.0400  -285.6740  -157.7141 H3            1 RES     
    6184 H3         268.7624  -291.6221  -159.0276 H3            1 RES     
    6185 N4         267.1987  -293.6202  -160.4334 N4            1 RES     
    6186 C1         266.9403  -294.8429  -160.9854 C1            1 RES     
    6187 C1         265.6468  -295.3787  -160.9699 C1            1 RES     
    6188 C1         264.6326  -294.6376  -160.3766 C1            1 RES     
    6189 N4         263.3489  -295.0634  -160.2848 N4            1 RES     
    6190 S2         262.6191  -293.8097  -159.4953 S2            1 RES     
    6191 N4         263.8454  -292.7276  -159.2623 N4            1 RES     
    6192 C1         264.9111  -293.3586  -159.8224 C1            1 RES     
    6193 C1         266.2268  -292.8486  -159.8609 C1            1 RES     
    6194 H5         267.7430  -295.4034  -161.4469 H5            1 RES     
    6195 C0         269.2090  -289.1042  -156.5511 C0            1 RES     
    6196 C0         270.0491  -288.0578  -155.8119 C0            1 RES     
    6197 C0         270.3322  -288.3387  -154.3329 C0            1 RES     
    6198 C0         269.0998  -288.4103  -153.4173 C0            1 RES     
    6199 C0         268.1029  -287.2544  -153.6391 C0            1 RES     
    6200 C0         267.0440  -287.1847  -152.5321 C0            1 RES     
    6201 C0         267.6098  -286.4986  -151.2788 C0            1 RES     
    6202 C0         266.5907  -286.4763  -150.1390 C0            1 RES     
    6203 C0         267.0952  -285.5984  -148.9896 C0            1 RES     
    6204 C0         266.3288  -285.7082  -147.6563 C0            1 RES     
    6205 C0         264.8178  -285.4016  -147.6554 C0            1 RES     
    6206 C0         263.9440  -286.5800  -148.1405 C0            1 RES     
    6207 C0         262.4229  -286.3344  -148.0883 C0            1 RES     
    6208 C0         261.7185  -286.5103  -146.7214 C0            1 RES     
    6209 C0         262.0483  -285.5197  -145.5950 C0            1 RES     
    6210 C0         261.8032  -284.0656  -145.9931 C0            1 RES     
    6211 H6         268.2651  -289.2511  -155.9845 H6            1 RES     
    6212 H6         269.7488  -290.0762  -156.5567 H6            1 RES     
    6213 H6         271.0231  -288.0056  -156.2956 H6            1 RES     
    6214 H6         269.5686  -287.0640  -155.8753 H6            1 RES     
    6215 H6         270.9258  -289.2715  -154.2191 H6            1 RES     
    6216 H6         270.9633  -287.4937  -153.9766 H6            1 RES     
    6217 H6         268.5579  -289.3682  -153.5736 H6            1 RES     
    6218 H6         269.4900  -288.4138  -152.3786 H6            1 RES     
    6219 H6         268.6166  -286.2706  -153.7098 H6            1 RES     
    6220 H6         267.5892  -287.4407  -154.6066 H6            1 RES     
    6221 H6         266.6515  -288.2032  -152.3166 H6            1 RES     
    6222 H6         266.1982  -286.5574  -152.8900 H6            1 RES     
    6223 H6         268.5249  -287.0107  -150.9156 H6            1 RES     
    6224 H6         267.8783  -285.4546  -151.5575 H6            1 RES     
    6225 H6         265.6453  -286.0415  -150.5219 H6            1 RES     
    6226 H6         266.4324  -287.5217  -149.7946 H6            1 RES     
    6227 H6         268.1468  -285.8772  -148.7570 H6            1 RES     
    6228 H6         267.0952  -284.5406  -149.3364 H6            1 RES     
    6229 H6         266.4955  -286.7054  -147.1948 H6            1 RES     
    6230 H6         266.8148  -284.9580  -146.9929 H6            1 RES     
    6231 H6         264.6099  -284.4695  -148.2241 H6            1 RES     
    6232 H6         264.5721  -285.2093  -146.6041 H6            1 RES     
    6233 H6         264.1695  -286.7641  -149.2001 H6            1 RES     
    6234 H6         264.1843  -287.5123  -147.5848 H6            1 RES     
    6235 H6         261.9688  -287.1234  -148.7292 H6            1 RES     
    6236 H6         262.1730  -285.3612  -148.5609 H6            1 RES     
    6237 H6         260.6260  -286.4308  -146.9151 H6            1 RES     
    6238 H6         261.9129  -287.5393  -146.3475 H6            1 RES     
    6239 H6         261.3931  -285.7598  -144.7298 H6            1 RES     
    6240 H6         263.0820  -285.6578  -145.2338 H6            1 RES     
    6241 H6         260.7457  -283.9251  -146.3016 H6            1 RES     
    6242 H6         262.0130  -283.4051  -145.1258 H6            1 RES     
    6243 H6         262.4698  -283.7644  -146.8266 H6            1 RES     
    6244 C0         270.0597  -288.5840  -158.9962 C0            1 RES     
    6245 C0         270.7761  -287.2116  -159.0291 C0            1 RES     
    6246 C0         272.0888  -287.1077  -159.8357 C0            1 RES     
    6247 C0         273.3741  -287.6864  -159.1939 C0            1 RES     
    6248 C0         273.5878  -287.1975  -157.7462 C0            1 RES     
    6249 C0         275.0051  -287.3924  -157.1885 C0            1 RES     
    6250 C0         275.9610  -286.2923  -157.6786 C0            1 RES     
    6251 C0         277.3544  -286.4298  -157.0476 C0            1 RES     
    6252 C0         278.2267  -285.2188  -157.4042 C0            1 RES     
    6253 C0         279.7324  -285.3253  -157.0795 C0            1 RES     
    6254 C0         280.1703  -285.4761  -155.6070 C0            1 RES     
    6255 C0         280.0356  -286.9076  -155.0488 C0            1 RES     
    6256 C0         280.5601  -287.1007  -153.6099 C0            1 RES     
    6257 C0         282.0866  -287.2874  -153.4232 C0            1 RES     
    6258 C0         283.0156  -286.1013  -153.7242 C0            1 RES     
    6259 C0         282.6691  -284.8547  -152.9126 C0            1 RES     
    6260 H6         270.7714  -289.4010  -158.7482 H6            1 RES     
    6261 H6         269.7219  -288.7553  -160.0430 H6            1 RES     
    6262 H6         270.0691  -286.5198  -159.5319 H6            1 RES     
    6263 H6         270.9715  -286.8041  -158.0283 H6            1 RES     
    6264 H6         271.9511  -287.5145  -160.8604 H6            1 RES     
    6265 H6         272.2849  -286.0171  -159.9410 H6            1 RES     
    6266 H6         273.3702  -288.7979  -159.2021 H6            1 RES     
    6267 H6         274.2146  -287.3448  -159.8345 H6            1 RES     
    6268 H6         273.3149  -286.1252  -157.6317 H6            1 RES     
    6269 H6         272.9142  -287.7984  -157.1210 H6            1 RES     
    6270 H6         275.3806  -288.4145  -157.4142 H6            1 RES     
    6271 H6         274.9433  -287.2839  -156.0838 H6            1 RES     
    6272 H6         276.0513  -286.3155  -158.7848 H6            1 RES     
    6273 H6         275.5336  -285.3086  -157.3780 H6            1 RES     
    6274 H6         277.2305  -286.4632  -155.9479 H6            1 RES     
    6275 H6         277.8207  -287.3689  -157.4151 H6            1 RES     
    6276 H6         278.1695  -285.0656  -158.5045 H6            1 RES     
    6277 H6         277.8015  -284.3140  -156.9150 H6            1 RES     
    6278 H6         280.2017  -286.1302  -157.6854 H6            1 RES     
    6279 H6         280.1603  -284.3606  -157.4340 H6            1 RES     
    6280 H6         279.6440  -284.7357  -154.9663 H6            1 RES     
    6281 H6         281.2354  -285.2127  -155.6054 H6            1 RES     
    6282 H6         278.9654  -287.1542  -155.0055 H6            1 RES     
    6283 H6         280.5248  -287.6478  -155.7182 H6            1 RES     
    6284 H6         280.1273  -288.0649  -153.2607 H6            1 RES     
    6285 H6         280.1555  -286.3123  -152.9404 H6            1 RES     
    6286 H6         282.2455  -287.5593  -152.3561 H6            1 RES     
    6287 H6         282.4188  -288.1538  -154.0360 H6            1 RES     
    6288 H6         284.0520  -286.4082  -153.4633 H6            1 RES     
    6289 H6         283.0344  -285.8727  -154.8039 H6            1 RES     
    6290 H6         282.7088  -285.0807  -151.8258 H6            1 RES     
    6291 H6         283.4033  -284.0525  -153.1363 H6            1 RES     
    6292 H6         281.6575  -284.4816  -153.1722 H6            1 RES     
    6293 C0         266.2239  -300.4983  -162.2160 C0            1 RES     
    6294 C1         265.6423  -299.0827  -162.0209 C1            1 RES     
    6295 C1         264.4060  -298.8193  -162.7859 C1            1 RES     
    6296 S2         264.4786  -297.0802  -163.2422 S2            1 RES     
    6297 C1         265.3233  -296.9004  -161.6553 C1            1 RES     
    6298 C1         266.0250  -298.0363  -161.2971 C1            1 RES     
    6299 C1         264.4851  -299.9050  -163.7518 C1            1 RES     
    6300 C1         265.4246  -300.8531  -163.4668 C1            1 RES     
    6301 C1         265.4096  -301.9233  -164.3793 C1            1 RES     
    6302 C1         264.3856  -301.7690  -165.3444 C1            1 RES     
    6303 S2         263.5398  -300.3267  -165.0460 S2            1 RES     
    6304 H3         266.8537  -298.0024  -160.6090 H3            1 RES     
    6305 H3         266.0862  -302.7677  -164.3352 H3            1 RES     
    6306 N4         265.0300  -303.5477  -166.9217 N4            1 RES     
    6307 C1         264.8346  -304.3708  -167.9945 C1            1 RES     
    6308 C1         263.6151  -304.3763  -168.6824 C1            1 RES     
    6309 C1         262.6070  -303.5262  -168.2453 C1            1 RES     
    6310 N4         261.3809  -303.4606  -168.8195 N4            1 RES     
    6311 S2         260.6223  -302.3194  -167.8976 S2            1 RES     
    6312 N4         261.7719  -301.8800  -166.7955 N4            1 RES     
    6313 C1         262.8295  -302.6614  -167.1393 C1            1 RES     
    6314 C1         264.0740  -302.6800  -166.4734 C1            1 RES     
    6315 H5         265.6336  -305.0230  -168.3226 H5            1 RES     
    6316 C0         265.7747  -301.4360  -161.0485 C0            1 RES     
    6317 C0         266.3445  -301.0361  -159.6838 C0            1 RES     
    6318 C0         265.8253  -301.8230  -158.4764 C0            1 RES     
    6319 C0         264.3180  -301.7059  -158.1991 C0            1 RES     
    6320 C0         263.7952  -300.2557  -158.2533 C0            1 RES     
    6321 C0         262.3726  -300.1336  -157.6939 C0            1 RES     
    6322 C0         262.3916  -300.1031  -156.1576 C0            1 RES     
    6323 C0         260.9782  -300.0469  -155.5768 C0            1 RES     
    6324 C0         261.0316  -299.7941  -154.0670 C0            1 RES     
    6325 C0         259.7164  -300.0038  -153.2902 C0            1 RES     
    6326 C0         258.4815  -299.1817  -153.7101 C0            1 RES     
    6327 C0         257.7357  -299.7606  -154.9332 C0            1 RES     
    6328 C0         256.4558  -299.0038  -155.3403 C0            1 RES     
    6329 C0         255.1647  -299.3044  -154.5414 C0            1 RES     
    6330 C0         255.1015  -298.8816  -153.0662 C0            1 RES     
    6331 C0         255.3649  -297.3906  -152.8646 C0            1 RES     
    6332 H6         264.6669  -301.3879  -160.9868 H6            1 RES     
    6333 H6         266.0505  -302.4899  -161.2710 H6            1 RES     
    6334 H6         267.4202  -301.2032  -159.7063 H6            1 RES     
    6335 H6         266.1567  -299.9643  -159.4876 H6            1 RES     
    6336 H6         266.0976  -302.8971  -158.5636 H6            1 RES     
    6337 H6         266.3598  -301.4120  -157.5907 H6            1 RES     
    6338 H6         263.7421  -302.3081  -158.9349 H6            1 RES     
    6339 H6         264.1550  -302.1572  -157.1987 H6            1 RES     
    6340 H6         264.4605  -299.5536  -157.7045 H6            1 RES     
    6341 H6         263.7815  -299.9479  -159.3208 H6            1 RES     
    6342 H6         261.7352  -300.9533  -158.0934 H6            1 RES     
    6343 H6         261.9415  -299.1654  -158.0311 H6            1 RES     
    6344 H6         262.9021  -300.9963  -155.7416 H6            1 RES     
    6345 H6         262.9580  -299.1970  -155.8448 H6            1 RES     
    6346 H6         260.4361  -299.2050  -156.0531 H6            1 RES     
    6347 H6         260.4744  -301.0138  -155.7956 H6            1 RES     
    6348 H6         261.7668  -300.4928  -153.6096 H6            1 RES     
    6349 H6         261.4034  -298.7578  -153.9026 H6            1 RES     
    6350 H6         259.4444  -301.0813  -153.2730 H6            1 RES     
    6351 H6         259.9615  -299.7140  -152.2438 H6            1 RES     
    6352 H6         258.7568  -298.1151  -153.8588 H6            1 RES     
    6353 H6         257.8059  -299.2317  -152.8477 H6            1 RES     
    6354 H6         258.3996  -299.6936  -155.8063 H6            1 RES     
    6355 H6         257.4943  -300.8353  -154.7834 H6            1 RES     
    6356 H6         256.2197  -299.3462  -156.3730 H6            1 RES     
    6357 H6         256.6572  -297.9139  -155.4074 H6            1 RES     
    6358 H6         254.3371  -298.7783  -155.0664 H6            1 RES     
    6359 H6         254.9522  -300.3943  -154.6001 H6            1 RES     
    6360 H6         254.0800  -299.1091  -152.6918 H6            1 RES     
    6361 H6         255.7872  -299.4872  -152.4490 H6            1 RES     
    6362 H6         254.6340  -296.7896  -153.4459 H6            1 RES     
    6363 H6         255.2586  -297.1391  -151.7885 H6            1 RES     
    6364 H6         256.3930  -297.1225  -153.1826 H6            1 RES     
    6365 C0         267.7736  -300.5673  -162.5395 C0            1 RES     
    6366 C0         268.6701  -299.6070  -161.7197 C0            1 RES     
    6367 C0         270.2001  -299.7570  -161.8637 C0            1 RES     
    6368 C0         270.8815  -300.9263  -161.1105 C0            1 RES     
    6369 C0         270.4675  -300.9987  -159.6259 C0            1 RES     
    6370 C0         271.3768  -301.8525  -158.7303 C0            1 RES     
    6371 C0         272.6439  -301.0855  -158.3176 C0            1 RES     
    6372 C0         273.5090  -301.9014  -157.3456 C0            1 RES     
    6373 C0         274.6622  -301.0454  -156.8057 C0            1 RES     
    6374 C0         275.7759  -301.7847  -156.0329 C0            1 RES     
    6375 C0         275.4176  -302.5112  -154.7190 C0            1 RES     
    6376 C0         274.7567  -303.8907  -154.9170 C0            1 RES     
    6377 C0         274.4804  -304.6763  -153.6173 C0            1 RES     
    6378 C0         275.6621  -305.4535  -152.9853 C0            1 RES     
    6379 C0         276.8326  -304.6564  -152.3894 C0            1 RES     
    6380 C0         276.3905  -303.6679  -151.3122 C0            1 RES     
    6381 H6         268.1055  -301.6216  -162.4231 H6            1 RES     
    6382 H6         267.9514  -300.2871  -163.6020 H6            1 RES     
    6383 H6         268.4395  -298.5899  -162.0986 H6            1 RES     
    6384 H6         268.4382  -299.6131  -160.6463 H6            1 RES     
    6385 H6         270.4929  -299.7643  -162.9355 H6            1 RES     
    6386 H6         270.6307  -298.8343  -161.4140 H6            1 RES     
    6387 H6         270.6657  -301.9042  -161.5930 H6            1 RES     
    6388 H6         271.9741  -300.7429  -161.1881 H6            1 RES     
    6389 H6         270.3878  -299.9857  -159.1732 H6            1 RES     
    6390 H6         269.4747  -301.4676  -159.6108 H6            1 RES     
    6391 H6         271.6073  -302.8258  -159.2162 H6            1 RES     
    6392 H6         270.8168  -302.0593  -157.7925 H6            1 RES     
    6393 H6         273.2457  -300.8134  -159.2099 H6            1 RES     
    6394 H6         272.3257  -300.1492  -157.8051 H6            1 RES     
    6395 H6         272.8706  -302.2094  -156.4951 H6            1 RES     
    6396 H6         273.9012  -302.7928  -157.8803 H6            1 RES     
    6397 H6         275.1691  -300.5652  -157.6717 H6            1 RES     
    6398 H6         274.2403  -300.2350  -156.1699 H6            1 RES     
    6399 H6         276.3108  -302.4885  -156.7065 H6            1 RES     
    6400 H6         276.4996  -300.9845  -155.7585 H6            1 RES     
    6401 H6         274.8046  -301.8538  -154.0649 H6            1 RES     
    6402 H6         276.3803  -302.6679  -154.2165 H6            1 RES     
    6403 H6         273.7714  -303.7305  -155.3770 H6            1 RES     
    6404 H6         275.3516  -304.5260  -155.6083 H6            1 RES     
    6405 H6         273.7551  -305.4728  -153.8977 H6            1 RES     
    6406 H6         273.9673  -304.0295  -152.8745 H6            1 RES     
    6407 H6         275.2352  -306.0658  -152.1604 H6            1 RES     
    6408 H6         276.0711  -306.1595  -153.7408 H6            1 RES     
    6409 H6         277.5358  -305.3826  -151.9261 H6            1 RES     
    6410 H6         277.4095  -304.1435  -153.1783 H6            1 RES     
    6411 H6         275.8609  -304.2019  -150.4949 H6            1 RES     
    6412 H6         277.2824  -303.1616  -150.8871 H6            1 RES     
    6413 H6         275.7208  -302.8926  -151.7371 H6            1 RES     
    6414 C0         263.7085  -308.7418  -171.6873 C0            1 RES     
    6415 C1         263.3927  -307.3366  -171.1341 C1            1 RES     
    6416 C1         262.7509  -306.4275  -172.1059 C1            1 RES     
    6417 S2         263.3696  -304.7836  -171.7150 S2            1 RES     
    6418 C1         263.3694  -305.4004  -170.0169 C1            1 RES     
    6419 C1         263.5781  -306.7652  -169.9490 C1            1 RES     
    6420 C1         263.0690  -307.1309  -173.3396 C1            1 RES     
    6421 C1         263.5529  -308.3951  -173.1654 C1            1 RES     
    6422 C1         263.7680  -309.0662  -174.3827 C1            1 RES     
    6423 C1         263.3824  -308.2719  -175.4892 C1            1 RES     
    6424 S2         262.7960  -306.7772  -174.9355 S2            1 RES     
    6425 H3         263.9654  -307.2404  -169.0627 H3            1 RES     
    6426 H3         264.1620  -310.0719  -174.4595 H3            1 RES     
    6427 N4         264.3422  -309.6138  -177.3181 N4            1 RES     
    6428 C1         264.5275  -309.9536  -178.6283 C1            1 RES     
    6429 C1         263.8108  -309.3108  -179.6450 C1            1 RES     
    6430 C1         262.9039  -308.3206  -179.2885 C1            1 RES     
    6431 N4         262.1411  -307.6460  -180.1831 N4            1 RES     
    6432 S2         261.2728  -306.6326  -179.2101 S2            1 RES     
    6433 N4         261.8160  -306.9886  -177.6911 N4            1 RES     
    6434 C1         262.7341  -307.9637  -177.9231 C1            1 RES     
    6435 C1         263.4780  -308.6304  -176.9258 C1            1 RES     
    6436 H5         265.2417  -310.7247  -178.8866 H5            1 RES     
    6437 C0         262.5831  -309.7497  -171.2852 C0            1 RES     
    6438 C0         262.4965  -310.0063  -169.7774 C0            1 RES     
    6439 C0         261.3214  -310.8672  -169.3035 C0            1 RES     
    6440 C0         259.9207  -310.2952  -169.5741 C0            1 RES     
    6441 C0         259.7811  -308.8075  -169.1910 C0            1 RES     
    6442 C0         258.3191  -308.3450  -169.1952 C0            1 RES     
    6443 C0         257.6068  -308.7773  -167.9040 C0            1 RES     
    6444 C0         256.1294  -308.3827  -167.9152 C0            1 RES     
    6445 C0         255.5026  -308.6234  -166.5384 C0            1 RES     
    6446 C0         253.9640  -308.5572  -166.4652 C0            1 RES     
    6447 C0         253.2671  -307.2566  -166.9124 C0            1 RES     
    6448 C0         253.1004  -307.1356  -168.4438 C0            1 RES     
    6449 C0         252.3461  -305.8801  -168.9249 C0            1 RES     
    6450 C0         250.7999  -305.9094  -168.8631 C0            1 RES     
    6451 C0         250.1228  -305.9472  -167.4851 C0            1 RES     
    6452 C0         250.5423  -304.7858  -166.5860 C0            1 RES     
    6453 H6         261.6141  -309.3210  -171.6180 H6            1 RES     
    6454 H6         262.7205  -310.7157  -171.8184 H6            1 RES     
    6455 H6         263.3960  -310.5400  -169.4747 H6            1 RES     
    6456 H6         262.4505  -309.0489  -169.2262 H6            1 RES     
    6457 H6         261.3873  -311.8896  -169.7346 H6            1 RES     
    6458 H6         261.4358  -310.9601  -168.2001 H6            1 RES     
    6459 H6         259.6620  -310.4001  -170.6502 H6            1 RES     
    6460 H6         259.2149  -310.9287  -168.9984 H6            1 RES     
    6461 H6         260.2252  -308.5919  -168.1945 H6            1 RES     
    6462 H6         260.3397  -308.2164  -169.9481 H6            1 RES     
    6463 H6         257.8045  -308.7186  -170.1082 H6            1 RES     
    6464 H6         258.2994  -307.2332  -169.2184 H6            1 RES     
    6465 H6         257.6711  -309.8751  -167.7545 H6            1 RES     
    6466 H6         258.1187  -308.2759  -167.0518 H6            1 RES     
    6467 H6         256.0568  -307.3010  -168.1479 H6            1 RES     
    6468 H6         255.6144  -308.9883  -168.6927 H6            1 RES     
    6469 H6         255.7776  -309.6435  -166.1898 H6            1 RES     
    6470 H6         255.9441  -307.8923  -165.8246 H6            1 RES     
    6471 H6         253.5131  -309.4145  -167.0099 H6            1 RES     
    6472 H6         253.7300  -308.6987  -165.3862 H6            1 RES     
    6473 H6         253.7816  -306.3713  -166.4800 H6            1 RES     
    6474 H6         252.2664  -307.3081  -166.4668 H6            1 RES     
    6475 H6         254.0995  -307.0617  -168.8954 H6            1 RES     
    6476 H6         252.6128  -308.0407  -168.8665 H6            1 RES     
    6477 H6         252.5710  -305.7922  -170.0117 H6            1 RES     
    6478 H6         252.7628  -304.9712  -168.4418 H6            1 RES     
    6479 H6         250.4445  -304.9881  -169.3752 H6            1 RES     
    6480 H6         250.4338  -306.7771  -169.4544 H6            1 RES     
    6481 H6         249.0246  -305.8854  -167.6452 H6            1 RES     
    6482 H6         250.2971  -306.9142  -166.9826 H6            1 RES     
    6483 H6         250.3112  -303.8171  -167.0773 H6            1 RES     
    6484 H6         249.9856  -304.8417  -165.6271 H6            1 RES     
    6485 H6         251.6270  -304.8308  -166.3595 H6            1 RES     
    6486 C0         265.1770  -309.2732  -171.4189 C0            1 RES     
    6487 C0         265.7398  -308.9938  -170.0036 C0            1 RES     
    6488 C0         267.0899  -309.6424  -169.6284 C0            1 RES     
    6489 C0         267.0858  -311.1456  -169.2553 C0            1 RES     
    6490 C0         266.0073  -311.4955  -168.2089 C0            1 RES     
    6491 C0         266.1918  -312.8452  -167.5002 C0            1 RES     
    6492 C0         267.2290  -312.7519  -166.3690 C0            1 RES     
    6493 C0         267.3463  -314.0744  -165.5971 C0            1 RES     
    6494 C0         268.2426  -313.8984  -164.3642 C0            1 RES     
    6495 C0         268.6830  -315.1854  -163.6337 C0            1 RES     
    6496 C0         267.6065  -316.0831  -162.9872 C0            1 RES     
    6497 C0         266.8666  -317.0019  -163.9809 C0            1 RES     
    6498 C0         265.8557  -317.9775  -163.3414 C0            1 RES     
    6499 C0         266.4144  -319.2814  -162.7188 C0            1 RES     
    6500 C0         267.2871  -319.1802  -161.4584 C0            1 RES     
    6501 C0         266.5859  -318.4628  -160.3066 C0            1 RES     
    6502 H6         265.2004  -310.3599  -171.6513 H6            1 RES     
    6503 H6         265.8918  -308.7778  -172.1137 H6            1 RES     
    6504 H6         265.9214  -307.8997  -169.9673 H6            1 RES     
    6505 H6         265.0268  -309.2305  -169.2026 H6            1 RES     
    6506 H6         267.8517  -309.4402  -170.4116 H6            1 RES     
    6507 H6         267.4233  -309.1171  -168.7054 H6            1 RES     
    6508 H6         266.9413  -311.7885  -170.1506 H6            1 RES     
    6509 H6         268.0944  -311.3596  -168.8426 H6            1 RES     
    6510 H6         265.9199  -310.7050  -167.4311 H6            1 RES     
    6511 H6         265.0586  -311.5517  -168.7587 H6            1 RES     
    6512 H6         266.4320  -313.6460  -168.2334 H6            1 RES     
    6513 H6         265.2235  -313.0995  -167.0167 H6            1 RES     
    6514 H6         268.2240  -312.4685  -166.7717 H6            1 RES     
    6515 H6         266.8937  -311.9596  -165.6615 H6            1 RES     
    6516 H6         266.3330  -314.3638  -165.2577 H6            1 RES     
    6517 H6         267.7644  -314.8475  -166.2768 H6            1 RES     
    6518 H6         269.1842  -313.4044  -164.6910 H6            1 RES     
    6519 H6         267.7350  -313.2157  -163.6463 H6            1 RES     
    6520 H6         269.3262  -315.8040  -164.2962 H6            1 RES     
    6521 H6         269.3274  -314.8237  -162.8011 H6            1 RES     
    6522 H6         266.8968  -315.4712  -162.3892 H6            1 RES     
    6523 H6         268.1604  -316.7208  -162.2869 H6            1 RES     
    6524 H6         266.2739  -316.3653  -164.6527 H6            1 RES     
    6525 H6         267.5830  -317.5766  -164.6068 H6            1 RES     
    6526 H6         265.2135  -318.3336  -164.1780 H6            1 RES     
    6527 H6         265.1870  -317.4376  -162.6380 H6            1 RES     
    6528 H6         265.5352  -319.9092  -162.4532 H6            1 RES     
    6529 H6         266.9884  -319.8318  -163.4960 H6            1 RES     
    6530 H6         267.5265  -320.2146  -161.1283 H6            1 RES     
    6531 H6         268.2582  -318.7055  -161.6819 H6            1 RES     
    6532 H6         265.6377  -318.9817  -160.0514 H6            1 RES     
    6533 H6         267.2452  -318.4664  -159.4133 H6            1 RES     
    6534 H6         266.3664  -317.4085  -160.5717 H6            1 RES     
    6535 C0         264.4777  -312.3158  -183.9602 C0            1 RES     
    6536 C1         264.2163  -311.1223  -183.0181 C1            1 RES     
    6537 C1         264.3082  -309.7989  -183.6686 C1            1 RES     
    6538 S2         264.9712  -308.6881  -182.4179 S2            1 RES     
    6539 C1         264.0391  -309.7327  -181.2759 C1            1 RES     
    6540 C1         263.9197  -311.0342  -181.7259 C1            1 RES     
    6541 C1         265.0335  -310.1731  -184.8735 C1            1 RES     
    6542 C1         265.1186  -311.5176  -185.0922 C1            1 RES     
    6543 C1         265.7541  -311.8305  -186.3073 C1            1 RES     
    6544 C1         266.1075  -310.6625  -187.0247 C1            1 RES     
    6545 S2         265.6315  -309.2913  -186.1428 S2            1 RES     
    6546 H3         263.7352  -311.8562  -181.0539 H3            1 RES     
    6547 H3         265.9325  -312.8400  -186.6562 H3            1 RES     
    6548 N4         267.5427  -311.6595  -188.7605 N4            1 RES     
    6549 C1         268.2617  -311.6416  -189.9220 C1            1 RES     
    6550 C1         268.2591  -310.5129  -190.7506 C1            1 RES     
    6551 C1         267.5047  -309.4123  -190.3641 C1            1 RES     
    6552 N4         267.4103  -308.2746  -191.0949 N4            1 RES     
    6553 S2         266.3988  -307.3490  -190.1743 S2            1 RES     
    6554 N4         266.0685  -308.3089  -188.8709 N4            1 RES     
    6555 C1         266.7759  -309.4370  -189.1439 C1            1 RES     
    6556 C1         266.8065  -310.5910  -188.3316 C1            1 RES     
    6557 H5         268.8468  -312.5074  -190.2041 H5            1 RES     
    6558 C0         263.1254  -312.9135  -184.4682 C0            1 RES     
    6559 C0         262.2804  -313.5524  -183.3616 C0            1 RES     
    6560 C0         260.8799  -314.0233  -183.7656 C0            1 RES     
    6561 C0         259.9209  -312.9271  -184.2567 C0            1 RES     
    6562 C0         259.9078  -311.6750  -183.3558 C0            1 RES     
    6563 C0         258.7476  -310.7315  -183.6955 C0            1 RES     
    6564 C0         257.4361  -311.2335  -183.0714 C0            1 RES     
    6565 C0         256.2530  -310.3423  -183.4515 C0            1 RES     
    6566 C0         255.0110  -310.7314  -182.6437 C0            1 RES     
    6567 C0         253.6711  -310.1327  -183.1163 C0            1 RES     
    6568 C0         253.5412  -308.5980  -183.1858 C0            1 RES     
    6569 C0         254.1542  -307.9794  -184.4622 C0            1 RES     
    6570 C0         253.9826  -306.4535  -184.5999 C0            1 RES     
    6571 C0         252.6230  -305.9331  -185.1256 C0            1 RES     
    6572 C0         251.3769  -306.1250  -184.2485 C0            1 RES     
    6573 C0         251.5324  -305.5171  -182.8559 C0            1 RES     
    6574 H6         262.5381  -312.0832  -184.9143 H6            1 RES     
    6575 H6         263.3100  -313.6599  -185.2714 H6            1 RES     
    6576 H6         262.8022  -314.4413  -183.0106 H6            1 RES     
    6577 H6         262.1639  -312.8523  -182.5138 H6            1 RES     
    6578 H6         260.9434  -314.8235  -184.5346 H6            1 RES     
    6579 H6         260.4322  -314.4720  -182.8505 H6            1 RES     
    6580 H6         260.1934  -312.6086  -185.2863 H6            1 RES     
    6581 H6         258.9178  -313.3985  -184.3081 H6            1 RES     
    6582 H6         259.8537  -311.9401  -182.2772 H6            1 RES     
    6583 H6         260.8632  -311.1340  -183.5262 H6            1 RES     
    6584 H6         258.6707  -310.6049  -184.7982 H6            1 RES     
    6585 H6         258.9583  -309.7356  -183.2475 H6            1 RES     
    6586 H6         257.2061  -312.2705  -183.3927 H6            1 RES     
    6587 H6         257.5647  -311.2284  -181.9655 H6            1 RES     
    6588 H6         256.5126  -309.2919  -183.2090 H6            1 RES     
    6589 H6         256.0657  -310.4603  -184.5412 H6            1 RES     
    6590 H6         254.8813  -311.8354  -182.6901 H6            1 RES     
    6591 H6         255.1902  -310.4570  -181.5799 H6            1 RES     
    6592 H6         253.3784  -310.5650  -184.0975 H6            1 RES     
    6593 H6         252.9273  -310.4900  -182.3692 H6            1 RES     
    6594 H6         253.9475  -308.1312  -182.2625 H6            1 RES     
    6595 H6         252.4611  -308.4093  -183.2042 H6            1 RES     
    6596 H6         255.2401  -308.1459  -184.4398 H6            1 RES     
    6597 H6         253.7625  -308.4764  -185.3762 H6            1 RES     
    6598 H6         254.7118  -306.1381  -185.3797 H6            1 RES     
    6599 H6         254.2854  -305.9452  -183.6603 H6            1 RES     
    6600 H6         252.7428  -304.8389  -185.2859 H6            1 RES     
    6601 H6         252.4232  -306.3918  -186.1187 H6            1 RES     
    6602 H6         250.5250  -305.6224  -184.7554 H6            1 RES     
    6603 H6         251.0977  -307.1907  -184.1816 H6            1 RES     
    6604 H6         251.7579  -304.4325  -182.9335 H6            1 RES     
    6605 H6         250.5863  -305.6456  -182.2894 H6            1 RES     
    6606 H6         252.3444  -306.0195  -182.2918 H6            1 RES     
    6607 C0         265.5036  -313.4003  -183.4289 C0            1 RES     
    6608 C0         265.3634  -313.7756  -181.9331 C0            1 RES     
    6609 C0         266.2141  -314.9518  -181.4067 C0            1 RES     
    6610 C0         265.7396  -316.3878  -181.7409 C0            1 RES     
    6611 C0         264.2475  -316.6112  -181.4178 C0            1 RES     
    6612 C0         263.8040  -318.0792  -181.3399 C0            1 RES     
    6613 C0         264.1697  -318.7085  -179.9855 C0            1 RES     
    6614 C0         263.6437  -320.1467  -179.8683 C0            1 RES     
    6615 C0         263.8561  -320.6813  -178.4458 C0            1 RES     
    6616 C0         263.6336  -322.1939  -178.2298 C0            1 RES     
    6617 C0         262.2278  -322.7841  -178.4707 C0            1 RES     
    6618 C0         261.8903  -323.0329  -179.9550 C0            1 RES     
    6619 C0         260.5288  -323.7138  -180.2110 C0            1 RES     
    6620 C0         260.4559  -325.2526  -180.0483 C0            1 RES     
    6621 C0         260.6205  -325.8529  -178.6436 C0            1 RES     
    6622 C0         259.6089  -325.3024  -177.6403 C0            1 RES     
    6623 H6         265.4233  -314.3001  -184.0764 H6            1 RES     
    6624 H6         266.5445  -313.0192  -183.5316 H6            1 RES     
    6625 H6         265.7146  -312.8863  -181.3700 H6            1 RES     
    6626 H6         264.3238  -313.9602  -181.6315 H6            1 RES     
    6627 H6         267.2803  -314.8208  -181.6905 H6            1 RES     
    6628 H6         266.1606  -314.8813  -180.2971 H6            1 RES     
    6629 H6         265.9188  -316.6393  -182.8087 H6            1 RES     
    6630 H6         266.3645  -317.0666  -181.1225 H6            1 RES     
    6631 H6         263.9547  -316.1101  -180.4688 H6            1 RES     
    6632 H6         263.6869  -316.1525  -182.2430 H6            1 RES     
    6633 H6         264.2044  -318.6583  -182.2007 H6            1 RES     
    6634 H6         262.6941  -318.0927  -181.4018 H6            1 RES     
    6635 H6         265.2695  -318.7029  -179.8347 H6            1 RES     
    6636 H6         263.6985  -318.0946  -179.1844 H6            1 RES     
    6637 H6         262.5572  -320.1322  -180.0807 H6            1 RES     
    6638 H6         264.1762  -320.7820  -180.6080 H6            1 RES     
    6639 H6         264.9150  -320.4926  -178.1618 H6            1 RES     
    6640 H6         263.2110  -320.1045  -177.7457 H6            1 RES     
    6641 H6         264.3808  -322.7800  -178.8072 H6            1 RES     
    6642 H6         263.8579  -322.3548  -177.1513 H6            1 RES     
    6643 H6         261.4531  -322.1606  -177.9738 H6            1 RES     
    6644 H6         262.2432  -323.7557  -177.9612 H6            1 RES     
    6645 H6         261.8278  -322.0565  -180.4556 H6            1 RES     
    6646 H6         262.6913  -323.6178  -180.4568 H6            1 RES     
    6647 H6         260.3095  -323.5475  -181.2896 H6            1 RES     
    6648 H6         259.7250  -323.1999  -179.6427 H6            1 RES     
    6649 H6         259.4537  -325.5644  -180.4173 H6            1 RES     
    6650 H6         261.2120  -325.7196  -180.7168 H6            1 RES     
    6651 H6         260.4663  -326.9511  -178.7245 H6            1 RES     
    6652 H6         261.6514  -325.7224  -178.2716 H6            1 RES     
    6653 H6         258.5737  -325.4897  -177.9966 H6            1 RES     
    6654 H6         259.7457  -325.8093  -176.6621 H6            1 RES     
    6655 H6         259.7528  -324.2130  -177.4900 H6            1 RES     
    6656 C0         270.3084  -312.1401  -195.3602 C0            1 RES     
    6657 C1         269.8664  -311.2678  -194.1668 C1            1 RES     
    6658 C1         270.5137  -309.9411  -194.1069 C1            1 RES     
    6659 S2         270.6998  -309.5702  -192.3560 S2            1 RES     
    6660 C1         269.1522  -310.4887  -192.1969 C1            1 RES     
    6661 C1         269.0117  -311.4622  -193.1682 C1            1 RES     
    6662 C1         271.6382  -310.1816  -194.9989 C1            1 RES     
    6663 C1         271.5539  -311.3357  -195.7225 C1            1 RES     
    6664 C1         272.6182  -311.4864  -196.6296 C1            1 RES     
    6665 C1         273.4912  -310.3726  -196.5959 C1            1 RES     
    6666 S2         272.9288  -309.2474  -195.4547 S2            1 RES     
    6667 H3         268.3725  -312.3187  -193.0302 H3            1 RES     
    6668 H3         272.7413  -312.3404  -197.2839 H3            1 RES     
    6669 N4         275.3562  -311.2661  -197.9339 N4            1 RES     
    6670 C1         276.5308  -311.1708  -198.6250 C1            1 RES     
    6671 C1         277.1444  -309.9290  -198.8300 C1            1 RES     
    6672 C1         276.5277  -308.7953  -198.3158 C1            1 RES     
    6673 N4         277.0178  -307.5409  -198.4697 N4            1 RES     
    6674 S2         275.8914  -306.6252  -197.6820 S2            1 RES     
    6675 N4         274.7986  -307.7361  -197.1336 N4            1 RES     
    6676 C1         275.3154  -308.9104  -197.5827 C1            1 RES     
    6677 C1         274.7286  -310.1799  -197.3918 C1            1 RES     
    6678 H5         276.9982  -312.0660  -199.0143 H5            1 RES     
    6679 C0         269.2767  -312.0247  -196.5292 C0            1 RES     
    6680 C0         267.8996  -312.6063  -196.1944 C0            1 RES     
    6681 C0         266.8016  -312.3919  -197.2408 C0            1 RES     
    6682 C0         266.4284  -310.9291  -197.5294 C0            1 RES     
    6683 C0         266.2301  -310.0837  -196.2545 C0            1 RES     
    6684 C0         265.5826  -308.7268  -196.5564 C0            1 RES     
    6685 C0         264.0632  -308.8751  -196.7328 C0            1 RES     
    6686 C0         263.4051  -307.5442  -197.0988 C0            1 RES     
    6687 C0         261.8795  -307.6722  -197.0496 C0            1 RES     
    6688 C0         261.0744  -306.5152  -197.6743 C0            1 RES     
    6689 C0         261.2951  -305.0918  -197.1243 C0            1 RES     
    6690 C0         262.5507  -304.3935  -197.6930 C0            1 RES     
    6691 C0         262.7666  -302.9427  -197.2184 C0            1 RES     
    6692 C0         261.9548  -301.8320  -197.9275 C0            1 RES     
    6693 C0         260.4309  -301.8047  -197.7384 C0            1 RES     
    6694 C0         260.0165  -301.7346  -196.2699 C0            1 RES     
    6695 H6         269.1486  -310.9456  -196.7583 H6            1 RES     
    6696 H6         269.6735  -312.5148  -197.4450 H6            1 RES     
    6697 H6         268.0057  -313.6851  -196.0928 H6            1 RES     
    6698 H6         267.5307  -312.1950  -195.2367 H6            1 RES     
    6699 H6         267.0678  -312.8954  -198.1953 H6            1 RES     
    6700 H6         265.8933  -312.8942  -196.8383 H6            1 RES     
    6701 H6         267.2160  -310.4441  -198.1460 H6            1 RES     
    6702 H6         265.5021  -310.9641  -198.1392 H6            1 RES     
    6703 H6         265.6165  -310.6156  -195.4947 H6            1 RES     
    6704 H6         267.2352  -309.9045  -195.8160 H6            1 RES     
    6705 H6         266.0685  -308.2623  -197.4429 H6            1 RES     
    6706 H6         265.7427  -308.0560  -195.6838 H6            1 RES     
    6707 H6         263.8180  -309.6124  -197.5250 H6            1 RES     
    6708 H6         263.6456  -309.2431  -195.7685 H6            1 RES     
    6709 H6         263.7160  -306.7826  -196.3552 H6            1 RES     
    6710 H6         263.7427  -307.2592  -198.1193 H6            1 RES     
    6711 H6         261.5757  -308.5863  -197.6064 H6            1 RES     
    6712 H6         261.5777  -307.8085  -195.9868 H6            1 RES     
    6713 H6         261.2086  -306.5013  -198.7774 H6            1 RES     
    6714 H6         260.0106  -306.7792  -197.4799 H6            1 RES     
    6715 H6         261.2925  -305.0997  -196.0129 H6            1 RES     
    6716 H6         260.4155  -304.5255  -197.4532 H6            1 RES     
    6717 H6         263.4376  -304.9436  -197.3491 H6            1 RES     
    6718 H6         262.5555  -304.4204  -198.8042 H6            1 RES     
    6719 H6         263.8254  -302.7007  -197.4630 H6            1 RES     
    6720 H6         262.6757  -302.8809  -196.1135 H6            1 RES     
    6721 H6         262.3470  -300.8621  -197.5496 H6            1 RES     
    6722 H6         262.1692  -301.8717  -199.0180 H6            1 RES     
    6723 H6         260.0414  -300.9006  -198.2543 H6            1 RES     
    6724 H6         259.9524  -302.6637  -198.2396 H6            1 RES     
    6725 H6         260.4579  -300.8362  -195.7890 H6            1 RES     
    6726 H6         258.9104  -301.6695  -196.2012 H6            1 RES     
    6727 H6         260.3445  -302.6408  -195.7212 H6            1 RES     
    6728 C0         270.7219  -313.6288  -195.0089 C0            1 RES     
    6729 C0         269.8137  -314.3494  -193.9825 C0            1 RES     
    6730 C0         270.0616  -315.8538  -193.7383 C0            1 RES     
    6731 C0         269.5355  -316.8505  -194.8007 C0            1 RES     
    6732 C0         268.0596  -316.5982  -195.1732 C0            1 RES     
    6733 C0         267.3568  -317.7558  -195.8970 C0            1 RES     
    6734 C0         266.9000  -318.8438  -194.9113 C0            1 RES     
    6735 C0         266.1135  -319.9565  -195.6198 C0            1 RES     
    6736 C0         265.5113  -320.9250  -194.5933 C0            1 RES     
    6737 C0         264.9230  -322.2433  -195.1412 C0            1 RES     
    6738 C0         263.7193  -322.1804  -196.1054 C0            1 RES     
    6739 C0         264.0914  -321.8400  -197.5630 C0            1 RES     
    6740 C0         262.9152  -321.8689  -198.5623 C0            1 RES     
    6741 C0         262.4754  -323.2494  -199.1108 C0            1 RES     
    6742 C0         261.8280  -324.2531  -198.1445 C0            1 RES     
    6743 C0         260.5891  -323.6930  -197.4486 C0            1 RES     
    6744 H6         270.7875  -314.2036  -195.9580 H6            1 RES     
    6745 H6         271.7367  -313.6419  -194.5514 H6            1 RES     
    6746 H6         270.0183  -313.8580  -193.0088 H6            1 RES     
    6747 H6         268.7432  -314.2217  -194.1910 H6            1 RES     
    6748 H6         271.1360  -316.0438  -193.5281 H6            1 RES     
    6749 H6         269.4991  -316.0987  -192.8095 H6            1 RES     
    6750 H6         270.1505  -316.8236  -195.7262 H6            1 RES     
    6751 H6         269.6429  -317.8601  -194.3506 H6            1 RES     
    6752 H6         267.4527  -316.3281  -194.2810 H6            1 RES     
    6753 H6         268.0633  -315.7455  -195.8649 H6            1 RES     
    6754 H6         267.9985  -318.1600  -196.7102 H6            1 RES     
    6755 H6         266.4331  -317.3443  -196.3590 H6            1 RES     
    6756 H6         267.7709  -319.2847  -194.3827 H6            1 RES     
    6757 H6         266.2329  -318.3654  -194.1584 H6            1 RES     
    6758 H6         265.2874  -319.4845  -196.1860 H6            1 RES     
    6759 H6         266.7996  -320.4942  -196.3087 H6            1 RES     
    6760 H6         266.3191  -321.2285  -193.8914 H6            1 RES     
    6761 H6         264.7364  -320.3861  -194.0033 H6            1 RES     
    6762 H6         265.7249  -322.8637  -195.5964 H6            1 RES     
    6763 H6         264.5681  -322.7848  -194.2356 H6            1 RES     
    6764 H6         262.9396  -321.4933  -195.7109 H6            1 RES     
    6765 H6         263.2997  -323.1942  -196.0928 H6            1 RES     
    6766 H6         264.4673  -320.8074  -197.5835 H6            1 RES     
    6767 H6         264.9035  -322.5012  -197.9355 H6            1 RES     
    6768 H6         263.2754  -321.3245  -199.4639 H6            1 RES     
    6769 H6         262.0550  -321.2889  -198.1660 H6            1 RES     
    6770 H6         261.7328  -323.0501  -199.9149 H6            1 RES     
    6771 H6         263.3517  -323.7409  -199.5873 H6            1 RES     
    6772 H6         261.5208  -325.1430  -198.7363 H6            1 RES     
    6773 H6         262.5585  -324.6237  -197.4048 H6            1 RES     
    6774 H6         259.8363  -323.3756  -198.2011 H6            1 RES     
    6775 H6         260.1399  -324.4786  -196.8054 H6            1 RES     
    6776 H6         260.8525  -322.8277  -196.8069 H6            1 RES     
    6777 C0         280.7866  -310.7572  -202.5909 C0            1 RES     
    6778 C1         280.0073  -310.1768  -201.3924 C1            1 RES     
    6779 C1         280.7913  -309.2590  -200.5405 C1            1 RES     
    6780 S2         280.1858  -309.5149  -198.8655 S2            1 RES     
    6781 C1         278.6055  -309.8079  -199.6905 C1            1 RES     
    6782 C1         278.7601  -310.3304  -200.9610 C1            1 RES     
    6783 C1         282.1340  -309.6193  -200.9709 C1            1 RES     
    6784 C1         282.1831  -310.3948  -202.0929 C1            1 RES     
    6785 C1         283.4991  -310.6494  -202.5194 C1            1 RES     
    6786 C1         284.4474  -309.9943  -201.6977 C1            1 RES     
    6787 S2         283.6392  -309.1312  -200.4785 S2            1 RES     
    6788 H3         277.9798  -310.8942  -201.4455 H3            1 RES     
    6789 H3         283.7511  -311.2560  -203.3803 H3            1 RES     
    6790 N4         286.5105  -311.0705  -202.5055 N4            1 RES     
    6791 C1         287.8655  -311.2116  -202.6080 C1            1 RES     
    6792 C1         288.7308  -310.2785  -202.0239 C1            1 RES     
    6793 C1         288.1774  -309.2035  -201.3398 C1            1 RES     
    6794 N4         288.9149  -308.2292  -200.7529 N4            1 RES     
    6795 S2         287.7519  -307.2411  -200.1215 S2            1 RES     
    6796 N4         286.3374  -307.9847  -200.5406 N4            1 RES     
    6797 C1         286.7662  -309.0783  -201.2246 C1            1 RES     
    6798 C1         285.9252  -310.0415  -201.8225 C1            1 RES     
    6799 H5         288.2777  -312.0583  -203.1416 H5            1 RES     
    6800 C0         280.4844  -309.9346  -203.8854 C0            1 RES     
    6801 C0         279.0317  -310.0440  -204.3592 C0            1 RES     
    6802 C0         278.6333  -309.1457  -205.5343 C0            1 RES     
    6803 C0         278.7363  -307.6326  -205.2851 C0            1 RES     
    6804 C0         278.1216  -307.1889  -203.9418 C0            1 RES     
    6805 C0         277.9754  -305.6652  -203.8490 C0            1 RES     
    6806 C0         276.7296  -305.1895  -204.6127 C0            1 RES     
    6807 C0         276.6000  -303.6660  -204.5879 C0            1 RES     
    6808 C0         275.2449  -303.2367  -205.1586 C0            1 RES     
    6809 C0         275.0792  -301.7370  -205.4756 C0            1 RES     
    6810 C0         275.2824  -300.7223  -204.3327 C0            1 RES     
    6811 C0         276.7656  -300.3966  -204.0470 C0            1 RES     
    6812 C0         277.0060  -299.3337  -202.9565 C0            1 RES     
    6813 C0         276.8660  -297.8476  -203.3656 C0            1 RES     
    6814 C0         275.4757  -297.3229  -203.7536 C0            1 RES     
    6815 C0         274.4323  -297.5420  -202.6598 C0            1 RES     
    6816 H6         280.6943  -308.8672  -203.6614 H6            1 RES     
    6817 H6         281.1667  -310.2426  -204.7076 H6            1 RES     
    6818 H6         278.8639  -311.0655  -204.6967 H6            1 RES     
    6819 H6         278.3379  -309.8280  -203.5258 H6            1 RES     
    6820 H6         279.2196  -309.4066  -206.4419 H6            1 RES     
    6821 H6         277.5652  -309.3763  -205.7470 H6            1 RES     
    6822 H6         279.8001  -307.3102  -205.3010 H6            1 RES     
    6823 H6         278.2278  -307.1458  -206.1427 H6            1 RES     
    6824 H6         277.1293  -307.6583  -203.7640 H6            1 RES     
    6825 H6         278.8076  -307.5266  -203.1357 H6            1 RES     
    6826 H6         278.9059  -305.1713  -204.2070 H6            1 RES     
    6827 H6         277.8260  -305.3881  -202.7823 H6            1 RES     
    6828 H6         276.7548  -305.5180  -205.6724 H6            1 RES     
    6829 H6         275.8393  -305.6460  -204.1242 H6            1 RES     
    6830 H6         276.6590  -303.3259  -203.5342 H6            1 RES     
    6831 H6         277.4325  -303.2372  -205.1875 H6            1 RES     
    6832 H6         275.0730  -303.7692  -206.1202 H6            1 RES     
    6833 H6         274.4518  -303.5597  -204.4474 H6            1 RES     
    6834 H6         275.7243  -301.4489  -206.3336 H6            1 RES     
    6835 H6         274.0239  -301.6390  -205.8157 H6            1 RES     
    6836 H6         274.7472  -301.0556  -203.4173 H6            1 RES     
    6837 H6         274.7966  -299.8042  -204.6842 H6            1 RES     
    6838 H6         277.2537  -301.3074  -203.6735 H6            1 RES     
    6839 H6         277.2957  -300.0949  -204.9763 H6            1 RES     
    6840 H6         278.0769  -299.4345  -202.6692 H6            1 RES     
    6841 H6         276.4119  -299.5712  -202.0490 H6            1 RES     
    6842 H6         277.2100  -297.2454  -202.4959 H6            1 RES     
    6843 H6         277.5632  -297.6399  -204.2067 H6            1 RES     
    6844 H6         275.5647  -296.2302  -203.9369 H6            1 RES     
    6845 H6         275.1383  -297.7592  -204.7095 H6            1 RES     
    6846 H6         274.7554  -297.0512  -201.7174 H6            1 RES     
    6847 H6         273.4648  -297.1009  -202.9788 H6            1 RES     
    6848 H6         274.2745  -298.6236  -202.4727 H6            1 RES     
    6849 C0         280.6831  -312.3265  -202.7844 C0            1 RES     
    6850 C0         279.2742  -312.9335  -202.5740 C0            1 RES     
    6851 C0         279.0770  -314.4246  -202.9233 C0            1 RES     
    6852 C0         278.9403  -314.8001  -204.4198 C0            1 RES     
    6853 C0         277.9035  -313.9288  -205.1590 C0            1 RES     
    6854 C0         277.4222  -314.4814  -206.5083 C0            1 RES     
    6855 C0         276.3479  -315.5658  -206.3236 C0            1 RES     
    6856 C0         275.7965  -316.0528  -207.6718 C0            1 RES     
    6857 C0         274.6014  -316.9906  -207.4554 C0            1 RES     
    6858 C0         274.1029  -317.7789  -208.6859 C0            1 RES     
    6859 C0         273.5452  -317.0000  -209.8962 C0            1 RES     
    6860 C0         274.6271  -316.4061  -210.8214 C0            1 RES     
    6861 C0         274.0918  -315.7081  -212.0898 C0            1 RES     
    6862 C0         273.7087  -316.6052  -213.2933 C0            1 RES     
    6863 C0         272.4967  -317.5399  -213.1582 C0            1 RES     
    6864 C0         271.2120  -316.7978  -212.7955 C0            1 RES     
    6865 H6         281.0811  -312.5787  -203.7911 H6            1 RES     
    6866 H6         281.3309  -312.8432  -202.0411 H6            1 RES     
    6867 H6         279.0796  -312.8609  -201.4840 H6            1 RES     
    6868 H6         278.4819  -312.3685  -203.0828 H6            1 RES     
    6869 H6         279.8597  -315.0465  -202.4384 H6            1 RES     
    6870 H6         278.1034  -314.7090  -202.4646 H6            1 RES     
    6871 H6         279.9148  -314.7283  -204.9497 H6            1 RES     
    6872 H6         278.6206  -315.8635  -204.4389 H6            1 RES     
    6873 H6         277.0096  -313.7313  -204.5269 H6            1 RES     
    6874 H6         278.4033  -312.9733  -205.3662 H6            1 RES     
    6875 H6         278.2820  -314.8333  -207.1196 H6            1 RES     
    6876 H6         276.9321  -313.6448  -207.0522 H6            1 RES     
    6877 H6         276.7553  -316.4289  -205.7565 H6            1 RES     
    6878 H6         275.5098  -315.1215  -205.7400 H6            1 RES     
    6879 H6         275.4515  -315.1677  -208.2403 H6            1 RES     
    6880 H6         276.6088  -316.5754  -208.2208 H6            1 RES     
    6881 H6         274.8987  -317.7602  -206.7092 H6            1 RES     
    6882 H6         273.7606  -316.4055  -207.0200 H6            1 RES     
    6883 H6         274.8865  -318.4856  -209.0346 H6            1 RES     
    6884 H6         273.2606  -318.3942  -208.2970 H6            1 RES     
    6885 H6         272.8225  -316.2246  -209.5612 H6            1 RES     
    6886 H6         272.9825  -317.7459  -210.4714 H6            1 RES     
    6887 H6         275.1597  -315.6253  -210.2605 H6            1 RES     
    6888 H6         275.3719  -317.1769  -211.1153 H6            1 RES     
    6889 H6         274.9373  -315.0932  -212.4722 H6            1 RES     
    6890 H6         273.2785  -314.9984  -211.8284 H6            1 RES     
    6891 H6         273.4958  -315.9214  -214.1447 H6            1 RES     
    6892 H6         274.5913  -317.2190  -213.5775 H6            1 RES     
    6893 H6         272.3434  -318.0395  -214.1397 H6            1 RES     
    6894 H6         272.6966  -318.3517  -212.4376 H6            1 RES     
    6895 H6         270.9889  -316.0211  -213.5575 H6            1 RES     
    6896 H6         270.3669  -317.5170  -212.7624 H6            1 RES     
    6897 H6         271.2993  -316.3186  -211.7991 H6            1 RES     
    6898 C0         293.4871  -311.2324  -204.1602 C0            1 RES     
    6899 C1         292.3596  -310.7881  -203.2052 C1            1 RES     
    6900 C1         292.8024  -310.5145  -201.8225 C1            1 RES     
    6901 S2         291.4332  -311.0126  -200.7666 S2            1 RES     
    6902 C1         290.4171  -310.4516  -202.1511 C1            1 RES     
    6903 C1         291.0552  -310.5955  -203.3689 C1            1 RES     
    6904 C1         294.0880  -311.1962  -201.8424 C1            1 RES     
    6905 C1         294.5156  -311.5688  -203.0839 C1            1 RES     
    6906 C1         295.7970  -312.1485  -203.0651 C1            1 RES     
    6907 C1         296.3439  -312.1580  -201.7595 C1            1 RES     
    6908 S2         295.2368  -311.4596  -200.6774 S2            1 RES     
    6909 H3         290.5088  -310.6659  -204.2951 H3            1 RES     
    6910 H3         296.3064  -312.5227  -203.9444 H3            1 RES     
    6911 N4         298.2876  -313.6238  -202.1342 N4            1 RES     
    6912 C1         299.4696  -314.2129  -201.7848 C1            1 RES     
    6913 C1         300.1131  -313.8767  -200.5876 C1            1 RES     
    6914 C1         299.5213  -312.9266  -199.7647 C1            1 RES     
    6915 N4         300.0620  -312.5081  -198.5942 N4            1 RES     
    6916 S2         298.9564  -311.3967  -198.0746 S2            1 RES     
    6917 N4         297.8006  -311.4138  -199.2548 N4            1 RES     
    6918 C1         298.2819  -312.3348  -200.1310 C1            1 RES     
    6919 C1         297.6600  -312.7025  -201.3436 C1            1 RES     
    6920 H5         299.9129  -314.9541  -202.4372 H5            1 RES     
    6921 C0         294.0072  -310.0144  -204.9907 C0            1 RES     
    6922 C0         292.9682  -309.4412  -205.9596 C0            1 RES     
    6923 C0         293.3636  -308.1564  -206.6941 C0            1 RES     
    6924 C0         293.6273  -306.9310  -205.8047 C0            1 RES     
    6925 C0         292.5450  -306.7102  -204.7281 C0            1 RES     
    6926 C0         292.6720  -305.3384  -204.0545 C0            1 RES     
    6927 C0         292.0627  -304.2387  -204.9382 C0            1 RES     
    6928 C0         292.2364  -302.8531  -204.3149 C0            1 RES     
    6929 C0         291.4322  -301.8112  -205.0985 C0            1 RES     
    6930 C0         291.7338  -300.3328  -204.7814 C0            1 RES     
    6931 C0         291.5589  -299.8474  -203.3285 C0            1 RES     
    6932 C0         292.7560  -300.1852  -202.4119 C0            1 RES     
    6933 C0         292.6475  -299.6552  -200.9682 C0            1 RES     
    6934 C0         293.0124  -298.1711  -200.7238 C0            1 RES     
    6935 C0         292.1093  -297.0859  -201.3284 C0            1 RES     
    6936 C0         290.6501  -297.2206  -200.8974 C0            1 RES     
    6937 H6         294.2876  -309.2143  -204.2733 H6            1 RES     
    6938 H6         294.9247  -310.2935  -205.5535 H6            1 RES     
    6939 H6         292.7870  -310.1828  -206.7360 H6            1 RES     
    6940 H6         292.0176  -309.2426  -205.4310 H6            1 RES     
    6941 H6         294.2490  -308.3338  -207.3425 H6            1 RES     
    6942 H6         292.5057  -307.9075  -207.3583 H6            1 RES     
    6943 H6         294.6088  -307.0300  -205.2921 H6            1 RES     
    6944 H6         293.6965  -306.0630  -206.4922 H6            1 RES     
    6945 H6         291.5187  -306.8149  -205.1434 H6            1 RES     
    6946 H6         292.6814  -307.4962  -203.9548 H6            1 RES     
    6947 H6         293.7362  -305.1365  -203.8005 H6            1 RES     
    6948 H6         292.0880  -305.3532  -203.1081 H6            1 RES     
    6949 H6         292.5270  -304.2260  -205.9461 H6            1 RES     
    6950 H6         290.9778  -304.4606  -205.0536 H6            1 RES     
    6951 H6         291.8494  -302.8844  -203.2763 H6            1 RES     
    6952 H6         293.3196  -302.6017  -204.3243 H6            1 RES     
    6953 H6         291.6411  -301.9356  -206.1842 H6            1 RES     
    6954 H6         290.3501  -302.0163  -204.9373 H6            1 RES     
    6955 H6         292.7526  -300.0613  -205.1330 H6            1 RES     
    6956 H6         291.0116  -299.7609  -205.4061 H6            1 RES     
    6957 H6         290.5980  -300.2158  -202.9085 H6            1 RES     
    6958 H6         291.4895  -298.7556  -203.4050 H6            1 RES     
    6959 H6         292.8182  -301.2778  -202.3133 H6            1 RES     
    6960 H6         293.7131  -299.8386  -202.8587 H6            1 RES     
    6961 H6         293.4076  -300.2198  -200.3827 H6            1 RES     
    6962 H6         291.6585  -299.9153  -200.5354 H6            1 RES     
    6963 H6         293.0085  -298.0210  -199.6216 H6            1 RES     
    6964 H6         294.0521  -297.9947  -201.0767 H6            1 RES     
    6965 H6         292.4859  -296.0994  -200.9813 H6            1 RES     
    6966 H6         292.1924  -297.0667  -202.4287 H6            1 RES     
    6967 H6         290.5717  -297.1825  -199.7903 H6            1 RES     
    6968 H6         290.0598  -296.3839  -201.3263 H6            1 RES     
    6969 H6         290.2149  -298.1734  -201.2617 H6            1 RES     
    6970 C0         293.1854  -312.5236  -205.0277 C0            1 RES     
    6971 C0         291.7600  -312.6074  -205.6268 C0            1 RES     
    6972 C0         291.4679  -313.7495  -206.6241 C0            1 RES     
    6973 C0         291.9931  -313.5906  -208.0724 C0            1 RES     
    6974 C0         291.6281  -312.2249  -208.6907 C0            1 RES     
    6975 C0         291.7535  -312.1401  -210.2188 C0            1 RES     
    6976 C0         290.5340  -312.7600  -210.9207 C0            1 RES     
    6977 C0         290.6114  -312.5919  -212.4453 C0            1 RES     
    6978 C0         289.3019  -313.0476  -213.1025 C0            1 RES     
    6979 C0         289.3098  -313.1995  -214.6390 C0            1 RES     
    6980 C0         289.5624  -311.9517  -215.5118 C0            1 RES     
    6981 C0         291.0469  -311.5498  -215.6291 C0            1 RES     
    6982 C0         291.3308  -310.3644  -216.5763 C0            1 RES     
    6983 C0         291.4034  -310.6626  -218.0947 C0            1 RES     
    6984 C0         290.1189  -311.0854  -218.8241 C0            1 RES     
    6985 C0         288.9896  -310.0678  -218.6761 C0            1 RES     
    6986 H6         293.9585  -312.5953  -205.8231 H6            1 RES     
    6987 H6         293.2843  -313.4353  -204.3967 H6            1 RES     
    6988 H6         291.0864  -312.7931  -204.7648 H6            1 RES     
    6989 H6         291.4346  -311.6693  -206.0959 H6            1 RES     
    6990 H6         291.7853  -314.7272  -206.2025 H6            1 RES     
    6991 H6         290.3594  -313.7802  -206.7210 H6            1 RES     
    6992 H6         293.0951  -313.7270  -208.1247 H6            1 RES     
    6993 H6         291.5215  -314.4075  -208.6587 H6            1 RES     
    6994 H6         290.5989  -311.9103  -208.4096 H6            1 RES     
    6995 H6         292.3413  -311.5025  -208.2722 H6            1 RES     
    6996 H6         292.7136  -312.5848  -210.5610 H6            1 RES     
    6997 H6         291.7566  -311.0621  -210.4907 H6            1 RES     
    6998 H6         290.4438  -313.8380  -210.6709 H6            1 RES     
    6999 H6         289.6236  -312.2334  -210.5540 H6            1 RES     
    7000 H6         290.7601  -311.5169  -212.6641 H6            1 RES     
    7001 H6         291.4679  -313.1884  -212.8262 H6            1 RES     
    7002 H6         289.0499  -314.0555  -212.7049 H6            1 RES     
    7003 H6         288.4875  -312.3520  -212.7994 H6            1 RES     
    7004 H6         290.0102  -314.0071  -214.9432 H6            1 RES     
    7005 H6         288.2827  -313.5500  -214.8872 H6            1 RES     
    7006 H6         288.9342  -311.1017  -215.1674 H6            1 RES     
    7007 H6         289.2103  -312.2358  -216.5114 H6            1 RES     
    7008 H6         291.3870  -311.2197  -214.6374 H6            1 RES     
    7009 H6         291.6754  -312.4159  -215.9294 H6            1 RES     
    7010 H6         292.3574  -310.0175  -216.3218 H6            1 RES     
    7011 H6         290.6474  -309.5177  -216.3539 H6            1 RES     
    7012 H6         291.7613  -309.7303  -218.5852 H6            1 RES     
    7013 H6         292.1757  -311.4432  -218.2697 H6            1 RES     
    7014 H6         290.3596  -311.1818  -219.9054 H6            1 RES     
    7015 H6         289.7876  -312.0876  -218.5012 H6            1 RES     
    7016 H6         289.3140  -309.0760  -219.0567 H6            1 RES     
    7017 H6         288.1100  -310.4042  -219.2640 H6            1 RES     
    7018 H6         288.6812  -309.9698  -217.6153 H6            1 RES     
    7019 C0         305.0223  -315.8266  -201.0265 C0            1 RES     
    7020 C1         303.6866  -315.3037  -200.4582 C1            1 RES     
    7021 C1         303.4581  -315.6308  -199.0357 C1            1 RES     
    7022 S2         301.6836  -315.8818  -198.8741 S2            1 RES     
    7023 C1         301.5845  -314.6078  -200.1513 C1            1 RES     
    7024 C1         302.6852  -314.6092  -200.9875 C1            1 RES     
    7025 C1         304.4360  -316.6964  -198.8739 C1            1 RES     
    7026 C1         305.3231  -316.8160  -199.9041 C1            1 RES     
    7027 C1         306.2988  -317.8013  -199.6682 C1            1 RES     
    7028 C1         306.1412  -318.3938  -198.3924 C1            1 RES     
    7029 S2         304.8116  -317.6914  -197.6029 S2            1 RES     
    7030 H3         302.6464  -314.1993  -201.9834 H3            1 RES     
    7031 H3         307.0826  -318.0590  -200.3696 H3            1 RES     
    7032 N4         307.6997  -320.2877  -198.6185 N4            1 RES     
    7033 C1         308.4304  -321.3424  -198.1493 C1            1 RES     
    7034 C1         308.4745  -321.6328  -196.7803 C1            1 RES     
    7035 C1         307.7593  -320.8199  -195.9100 C1            1 RES     
    7036 N4         307.7442  -320.9922  -194.5655 N4            1 RES     
    7037 S2         306.7652  -319.7600  -194.0648 S2            1 RES     
    7038 N4         306.3362  -319.0057  -195.4706 N4            1 RES     
    7039 C1         306.9881  -319.7369  -196.4129 C1            1 RES     
    7040 C1         306.9636  -319.4776  -197.8002 C1            1 RES     
    7041 H5         308.9777  -321.9668  -198.8437 H5            1 RES     
    7042 C0         306.1020  -314.6962  -201.0043 C0            1 RES     
    7043 C0         305.7869  -313.5255  -201.9407 C0            1 RES     
    7044 C0         306.7268  -312.3188  -201.8560 C0            1 RES     
    7045 C0         306.7660  -311.5947  -200.5008 C0            1 RES     
    7046 C0         305.3672  -311.3214  -199.9108 C0            1 RES     
    7047 C0         305.4210  -310.3546  -198.7217 C0            1 RES     
    7048 C0         305.5357  -308.9007  -199.2061 C0            1 RES     
    7049 C0         305.6562  -307.9239  -198.0357 C0            1 RES     
    7050 C0         305.5449  -306.4793  -198.5330 C0            1 RES     
    7051 C0         305.9394  -305.3771  -197.5298 C0            1 RES     
    7052 C0         305.1895  -305.3122  -196.1842 C0            1 RES     
    7053 C0         305.7107  -306.3175  -195.1329 C0            1 RES     
    7054 C0         305.0307  -306.2348  -193.7518 C0            1 RES     
    7055 C0         305.5153  -305.1292  -192.7831 C0            1 RES     
    7056 C0         305.2421  -303.6631  -193.1500 C0            1 RES     
    7057 C0         303.7601  -303.3762  -193.3834 C0            1 RES     
    7058 H6         306.1549  -314.3031  -199.9669 H6            1 RES     
    7059 H6         307.1025  -315.1120  -201.2543 H6            1 RES     
    7060 H6         305.8586  -313.8857  -202.9656 H6            1 RES     
    7061 H6         304.7587  -313.1586  -201.7654 H6            1 RES     
    7062 H6         307.7605  -312.6078  -202.1450 H6            1 RES     
    7063 H6         306.3580  -311.5902  -202.6125 H6            1 RES     
    7064 H6         307.3422  -312.1913  -199.7607 H6            1 RES     
    7065 H6         307.3229  -310.6508  -200.6742 H6            1 RES     
    7066 H6         304.6664  -310.9170  -200.6736 H6            1 RES     
    7067 H6         304.9613  -312.2932  -199.5564 H6            1 RES     
    7068 H6         306.2503  -310.6395  -198.0370 H6            1 RES     
    7069 H6         304.4655  -310.4330  -198.1580 H6            1 RES     
    7070 H6         306.4177  -308.7622  -199.8652 H6            1 RES     
    7071 H6         304.6185  -308.6666  -199.7922 H6            1 RES     
    7072 H6         304.8221  -308.1160  -197.3308 H6            1 RES     
    7073 H6         306.6373  -308.0945  -197.5409 H6            1 RES     
    7074 H6         306.2186  -306.3458  -199.4083 H6            1 RES     
    7075 H6         304.5011  -306.3130  -198.8821 H6            1 RES     
    7076 H6         307.0328  -305.4057  -197.3331 H6            1 RES     
    7077 H6         305.7308  -304.4244  -198.0663 H6            1 RES     
    7078 H6         304.0940  -305.4104  -196.3445 H6            1 RES     
    7079 H6         305.3791  -304.3001  -195.8069 H6            1 RES     
    7080 H6         305.5042  -307.3343  -195.4949 H6            1 RES     
    7081 H6         306.8115  -306.2293  -195.0055 H6            1 RES     
    7082 H6         305.2920  -307.1834  -193.2308 H6            1 RES     
    7083 H6         303.9262  -306.2309  -193.8655 H6            1 RES     
    7084 H6         305.0142  -305.3197  -191.8084 H6            1 RES     
    7085 H6         306.6088  -305.2490  -192.6205 H6            1 RES     
    7086 H6         305.5907  -303.0315  -192.3044 H6            1 RES     
    7087 H6         305.8431  -303.3525  -194.0220 H6            1 RES     
    7088 H6         303.1711  -303.6399  -192.4796 H6            1 RES     
    7089 H6         303.6224  -302.2955  -193.5967 H6            1 RES     
    7090 H6         303.3761  -303.9516  -194.2502 H6            1 RES     
    7091 C0         304.9274  -316.6015  -202.4054 C0            1 RES     
    7092 C0         303.9767  -315.9787  -203.4571 C0            1 RES     
    7093 C0         303.9810  -316.5872  -204.8763 C0            1 RES     
    7094 C0         305.1542  -316.2122  -205.8153 C0            1 RES     
    7095 C0         305.4030  -314.6908  -205.8775 C0            1 RES     
    7096 C0         306.2574  -314.2117  -207.0600 C0            1 RES     
    7097 C0         305.4279  -314.1074  -208.3504 C0            1 RES     
    7098 C0         306.2559  -313.5384  -209.5120 C0            1 RES     
    7099 C0         305.3598  -313.2693  -210.7282 C0            1 RES     
    7100 C0         306.0716  -312.9540  -212.0616 C0            1 RES     
    7101 C0         306.9481  -311.6872  -212.1592 C0            1 RES     
    7102 C0         308.3538  -311.8396  -211.5430 C0            1 RES     
    7103 C0         309.2805  -310.6175  -211.7174 C0            1 RES     
    7104 C0         310.0106  -310.4603  -213.0747 C0            1 RES     
    7105 C0         309.1769  -310.1501  -214.3274 C0            1 RES     
    7106 C0         308.3370  -308.8826  -214.1829 C0            1 RES     
    7107 H6         305.9559  -316.7129  -202.8120 H6            1 RES     
    7108 H6         304.5330  -317.6286  -202.2362 H6            1 RES     
    7109 H6         302.9515  -316.1506  -203.0689 H6            1 RES     
    7110 H6         304.1049  -314.8934  -203.5638 H6            1 RES     
    7111 H6         303.8609  -317.6908  -204.8288 H6            1 RES     
    7112 H6         303.0719  -316.1811  -205.3742 H6            1 RES     
    7113 H6         306.0964  -316.7196  -205.5147 H6            1 RES     
    7114 H6         304.8715  -316.5889  -206.8211 H6            1 RES     
    7115 H6         304.4484  -314.1199  -205.8862 H6            1 RES     
    7116 H6         305.9543  -314.4363  -204.9626 H6            1 RES     
    7117 H6         307.1568  -314.8543  -207.1825 H6            1 RES     
    7118 H6         306.5999  -313.1808  -206.8239 H6            1 RES     
    7119 H6         305.0214  -315.1001  -208.6366 H6            1 RES     
    7120 H6         304.5754  -313.4179  -208.1545 H6            1 RES     
    7121 H6         306.6970  -312.5787  -209.1801 H6            1 RES     
    7122 H6         307.0554  -314.2657  -209.7692 H6            1 RES     
    7123 H6         304.7577  -314.1846  -210.9212 H6            1 RES     
    7124 H6         304.6528  -312.4469  -210.4778 H6            1 RES     
    7125 H6         306.6596  -313.8334  -212.4023 H6            1 RES     
    7126 H6         305.2424  -312.8155  -212.7913 H6            1 RES     
    7127 H6         306.4109  -310.8085  -211.7408 H6            1 RES     
    7128 H6         307.0691  -311.5152  -213.2361 H6            1 RES     
    7129 H6         308.2352  -311.9642  -210.4575 H6            1 RES     
    7130 H6         308.8671  -312.7456  -211.9317 H6            1 RES     
    7131 H6         310.1057  -310.7608  -210.9841 H6            1 RES     
    7132 H6         308.7537  -309.6857  -211.4216 H6            1 RES     
    7133 H6         310.7331  -309.6232  -212.9521 H6            1 RES     
    7134 H6         310.6038  -311.3802  -213.2707 H6            1 RES     
    7135 H6         309.8813  -310.0047  -215.1754 H6            1 RES     
    7136 H6         308.5437  -311.0093  -214.6087 H6            1 RES     
    7137 H6         308.9899  -308.0130  -213.9563 H6            1 RES     
    7138 H6         307.7992  -308.6855  -215.1340 H6            1 RES     
    7139 H6         307.5848  -308.9958  -213.3758 H6            1 RES     
    7140 C0         312.5095  -325.0179  -196.1840 C0            1 RES     
    7141 C1         311.1956  -324.2358  -195.9781 C1            1 RES     
    7142 C1         310.2561  -324.8601  -195.0239 C1            1 RES     
    7143 S2         308.6102  -324.4815  -195.6448 S2            1 RES     
    7144 C1         309.3839  -322.9441  -196.1942 C1            1 RES     
    7145 C1         310.7261  -323.1010  -196.4852 C1            1 RES     
    7146 C1         310.8088  -326.2059  -194.9878 C1            1 RES     
    7147 C1         312.0379  -326.3321  -195.5675 C1            1 RES     
    7148 C1         312.5690  -327.6280  -195.4367 C1            1 RES     
    7149 C1         311.7087  -328.4693  -194.6913 C1            1 RES     
    7150 S2         310.3292  -327.5959  -194.2235 S2            1 RES     
    7151 H3         311.2488  -322.4316  -197.1485 H3            1 RES     
    7152 H3         313.5255  -327.9352  -195.8410 H3            1 RES     
    7153 N4         312.7830  -330.6444  -195.1177 N4            1 RES     
    7154 C1         312.9792  -331.9808  -194.9128 C1            1 RES     
    7155 C1         312.3059  -332.6564  -193.8878 C1            1 RES     
    7156 C1         311.4354  -331.9336  -193.0817 C1            1 RES     
    7157 N4         310.7462  -332.4761  -192.0482 N4            1 RES     
    7158 S2         309.9082  -331.1778  -191.4654 S2            1 RES     
    7159 N4         310.3597  -329.9411  -192.4634 N4            1 RES     
    7160 C1         311.2262  -330.5475  -193.3172 C1            1 RES     
    7161 C1         311.9190  -329.9011  -194.3636 C1            1 RES     
    7162 H5         313.6583  -332.5276  -195.5541 H5            1 RES     
    7163 C0         313.6436  -324.4203  -195.2892 C0            1 RES     
    7164 C0         314.0493  -322.9956  -195.6795 C0            1 RES     
    7165 C0         315.0487  -322.2980  -194.7516 C0            1 RES     
    7166 C0         314.5753  -322.0716  -193.3069 C0            1 RES     
    7167 C0         313.1484  -321.4934  -193.2125 C0            1 RES     
    7168 C0         312.8142  -321.0091  -191.7964 C0            1 RES     
    7169 C0         313.4270  -319.6243  -191.5350 C0            1 RES     
    7170 C0         313.1608  -319.1501  -190.1058 C0            1 RES     
    7171 C0         313.5844  -317.6873  -189.9416 C0            1 RES     
    7172 C0         313.6572  -317.1531  -188.4971 C0            1 RES     
    7173 C0         312.3842  -317.2182  -187.6296 C0            1 RES     
    7174 C0         312.1324  -318.6059  -186.9984 C0            1 RES     
    7175 C0         310.9057  -318.6912  -186.0684 C0            1 RES     
    7176 C0         311.0728  -318.1769  -184.6182 C0            1 RES     
    7177 C0         311.2996  -316.6742  -184.3959 C0            1 RES     
    7178 C0         310.1978  -315.8111  -185.0075 C0            1 RES     
    7179 H6         313.2694  -324.3979  -194.2437 H6            1 RES     
    7180 H6         314.5390  -325.0792  -195.3084 H6            1 RES     
    7181 H6         314.5305  -323.0382  -196.6552 H6            1 RES     
    7182 H6         313.1563  -322.3478  -195.7532 H6            1 RES     
    7183 H6         316.0160  -322.8454  -194.7368 H6            1 RES     
    7184 H6         315.2363  -321.2971  -195.2013 H6            1 RES     
    7185 H6         314.5989  -323.0268  -192.7388 H6            1 RES     
    7186 H6         315.3188  -321.3903  -192.8444 H6            1 RES     
    7187 H6         312.9916  -320.6557  -193.9270 H6            1 RES     
    7188 H6         312.4422  -322.3077  -193.4821 H6            1 RES     
    7189 H6         313.1416  -321.7652  -191.0487 H6            1 RES     
    7190 H6         311.7110  -320.8955  -191.7121 H6            1 RES     
    7191 H6         314.5244  -319.6300  -191.6995 H6            1 RES     
    7192 H6         312.9672  -318.9102  -192.2549 H6            1 RES     
    7193 H6         312.0720  -319.2228  -189.9089 H6            1 RES     
    7194 H6         313.7313  -319.8047  -189.4110 H6            1 RES     
    7195 H6         314.6059  -317.5576  -190.3630 H6            1 RES     
    7196 H6         312.8896  -317.0565  -190.5403 H6            1 RES     
    7197 H6         314.4941  -317.6355  -187.9475 H6            1 RES     
    7198 H6         313.9205  -316.0776  -188.6107 H6            1 RES     
    7199 H6         311.5035  -316.8578  -188.2040 H6            1 RES     
    7200 H6         312.5632  -316.5046  -186.8164 H6            1 RES     
    7201 H6         311.9306  -319.3219  -187.8071 H6            1 RES     
    7202 H6         313.0314  -318.9673  -186.4536 H6            1 RES     
    7203 H6         310.6958  -319.7777  -185.9467 H6            1 RES     
    7204 H6         310.0149  -318.2510  -186.5640 H6            1 RES     
    7205 H6         310.1406  -318.4491  -184.0758 H6            1 RES     
    7206 H6         311.9083  -318.7297  -184.1357 H6            1 RES     
    7207 H6         311.3169  -316.4925  -183.2995 H6            1 RES     
    7208 H6         312.2917  -316.3626  -184.7657 H6            1 RES     
    7209 H6         309.2099  -316.0950  -184.5871 H6            1 RES     
    7210 H6         310.3922  -314.7435  -184.7731 H6            1 RES     
    7211 H6         310.1713  -315.9239  -186.1104 H6            1 RES     
    7212 C0         312.9366  -325.2617  -197.6903 C0            1 RES     
    7213 C0         312.7464  -324.0550  -198.6418 C0            1 RES     
    7214 C0         313.3101  -324.1762  -200.0742 C0            1 RES     
    7215 C0         314.8369  -323.9969  -200.2631 C0            1 RES     
    7216 C0         315.3758  -322.7256  -199.5746 C0            1 RES     
    7217 C0         316.7662  -322.2663  -200.0369 C0            1 RES     
    7218 C0         316.6930  -321.4915  -201.3629 C0            1 RES     
    7219 C0         318.0682  -320.9492  -201.7792 C0            1 RES     
    7220 C0         317.9346  -320.0263  -202.9977 C0            1 RES     
    7221 C0         319.2431  -319.6152  -203.7068 C0            1 RES     
    7222 C0         320.2870  -318.7876  -202.9272 C0            1 RES     
    7223 C0         321.1667  -319.6168  -201.9693 C0            1 RES     
    7224 C0         322.2817  -318.8243  -201.2540 C0            1 RES     
    7225 C0         323.5865  -318.5525  -202.0436 C0            1 RES     
    7226 C0         323.5317  -317.6053  -203.2521 C0            1 RES     
    7227 C0         322.9900  -316.2218  -202.8982 C0            1 RES     
    7228 H6         313.9901  -325.6158  -197.6989 H6            1 RES     
    7229 H6         312.3179  -326.0747  -198.1324 H6            1 RES     
    7230 H6         311.6492  -323.9468  -198.7680 H6            1 RES     
    7231 H6         313.1184  -323.1118  -198.2202 H6            1 RES     
    7232 H6         312.9697  -325.1210  -200.5496 H6            1 RES     
    7233 H6         312.8486  -323.3391  -200.6447 H6            1 RES     
    7234 H6         315.4013  -324.8774  -199.8869 H6            1 RES     
    7235 H6         315.0023  -323.9302  -201.3593 H6            1 RES     
    7236 H6         314.6735  -321.8703  -199.6866 H6            1 RES     
    7237 H6         315.4601  -322.9715  -198.5077 H6            1 RES     
    7238 H6         317.4700  -323.1261  -200.0842 H6            1 RES     
    7239 H6         317.1473  -321.5503  -199.2766 H6            1 RES     
    7240 H6         316.2885  -322.1355  -202.1716 H6            1 RES     
    7241 H6         316.0034  -320.6289  -201.2177 H6            1 RES     
    7242 H6         318.4742  -320.3604  -200.9340 H6            1 RES     
    7243 H6         318.7344  -321.8077  -202.0105 H6            1 RES     
    7244 H6         317.3331  -320.5581  -203.7677 H6            1 RES     
    7245 H6         317.3695  -319.1156  -202.6977 H6            1 RES     
    7246 H6         319.7384  -320.5062  -204.1494 H6            1 RES     
    7247 H6         318.9087  -318.9752  -204.5542 H6            1 RES     
    7248 H6         319.7979  -317.9386  -202.4021 H6            1 RES     
    7249 H6         320.9390  -318.3628  -203.7008 H6            1 RES     
    7250 H6         320.5219  -320.0031  -201.1675 H6            1 RES     
    7251 H6         321.6158  -320.4899  -202.4902 H6            1 RES     
    7252 H6         322.6099  -319.4680  -200.4072 H6            1 RES     
    7253 H6         321.8704  -317.8961  -200.8038 H6            1 RES     
    7254 H6         324.3096  -318.1129  -201.3214 H6            1 RES     
    7255 H6         324.0092  -319.5238  -202.3818 H6            1 RES     
    7256 H6         324.5687  -317.4844  -203.6348 H6            1 RES     
    7257 H6         322.9567  -318.0502  -204.0826 H6            1 RES     
    7258 H6         323.6101  -315.7588  -202.1014 H6            1 RES     
    7259 H6         323.0225  -315.5714  -203.7974 H6            1 RES     
    7260 H6         321.9379  -316.2848  -202.5532 H6            1 RES     
    7261 C0         314.8177  -337.2948  -193.3661 C0            1 RES     
    7262 C1         313.7462  -336.1850  -193.3415 C1            1 RES     
    7263 C1         312.3638  -336.6743  -193.1612 C1            1 RES     
    7264 S2         311.3247  -335.5562  -194.1141 S2            1 RES     
    7265 C1         312.5493  -334.3191  -193.6304 C1            1 RES     
    7266 C1         313.8074  -334.8620  -193.4483 C1            1 RES     
    7267 C1         312.5580  -338.0753  -193.5038 C1            1 RES     
    7268 C1         313.8633  -338.4648  -193.5889 C1            1 RES     
    7269 C1         314.0034  -339.8417  -193.8397 C1            1 RES     
    7270 C1         312.7464  -340.4902  -193.8958 C1            1 RES     
    7271 S2         311.5113  -339.3529  -193.6395 S2            1 RES     
    7272 H3         314.7025  -334.2663  -193.5209 H3            1 RES     
    7273 H3         314.9560  -340.3432  -193.9563 H3            1 RES     
    7274 N4         313.4470  -342.6778  -194.7847 N4            1 RES     
    7275 C1         313.2569  -343.9901  -195.1138 C1            1 RES     
    7276 C1         312.0587  -344.6428  -194.7995 C1            1 RES     
    7277 C1         311.0685  -343.9239  -194.1418 C1            1 RES     
    7278 N4         309.8785  -344.4557  -193.7696 N4            1 RES     
    7279 S2         309.1348  -343.1747  -193.0392 S2            1 RES     
    7280 N4         310.2394  -341.9535  -193.1725 N4            1 RES     
    7281 C1         311.2717  -342.5540  -193.8216 C1            1 RES     
    7282 C1         312.4911  -341.9280  -194.1588 C1            1 RES     
    7283 H5         314.0387  -344.5322  -195.6299 H5            1 RES     
    7284 C0         315.4775  -337.4444  -191.9568 C0            1 RES     
    7285 C0         316.2890  -336.2192  -191.5239 C0            1 RES     
    7286 C0         316.8371  -336.2412  -190.0936 C0            1 RES     
    7287 C0         315.7850  -336.2937  -188.9743 C0            1 RES     
    7288 C0         314.6303  -335.2899  -189.1702 C0            1 RES     
    7289 C0         313.7613  -335.1571  -187.9137 C0            1 RES     
    7290 C0         314.4307  -334.2348  -186.8829 C0            1 RES     
    7291 C0         313.6117  -334.1395  -185.5950 C0            1 RES     
    7292 C0         314.1808  -333.0505  -184.6804 C0            1 RES     
    7293 C0         313.6565  -333.0305  -183.2306 C0            1 RES     
    7294 C0         312.1389  -332.8787  -183.0051 C0            1 RES     
    7295 C0         311.3513  -334.1982  -183.1668 C0            1 RES     
    7296 C0         309.8395  -334.0995  -182.8813 C0            1 RES     
    7297 C0         309.3894  -334.1332  -181.4008 C0            1 RES     
    7298 C0         309.7698  -332.9543  -180.4929 C0            1 RES     
    7299 C0         309.2865  -331.6097  -181.0329 C0            1 RES     
    7300 H6         314.6616  -337.5958  -191.2187 H6            1 RES     
    7301 H6         316.1254  -338.3476  -191.9270 H6            1 RES     
    7302 H6         317.1593  -336.1453  -192.1738 H6            1 RES     
    7303 H6         315.6854  -335.2994  -191.6343 H6            1 RES     
    7304 H6         317.5519  -337.0822  -189.9619 H6            1 RES     
    7305 H6         317.4076  -335.2933  -189.9702 H6            1 RES     
    7306 H6         315.3476  -337.3132  -188.9031 H6            1 RES     
    7307 H6         316.3333  -336.0996  -188.0295 H6            1 RES     
    7308 H6         315.0007  -334.2825  -189.4612 H6            1 RES     
    7309 H6         313.9958  -335.6720  -189.9985 H6            1 RES     
    7310 H6         313.5371  -336.1645  -187.4981 H6            1 RES     
    7311 H6         312.7983  -334.6789  -188.1981 H6            1 RES     
    7312 H6         315.4482  -334.5919  -186.6209 H6            1 RES     
    7313 H6         314.5202  -333.2242  -187.3417 H6            1 RES     
    7314 H6         312.5709  -333.8642  -185.8605 H6            1 RES     
    7315 H6         313.6408  -335.1304  -185.0912 H6            1 RES     
    7316 H6         315.2824  -333.1848  -184.6011 H6            1 RES     
    7317 H6         313.9948  -332.0635  -185.1603 H6            1 RES     
    7318 H6         314.0166  -333.9239  -182.6762 H6            1 RES     
    7319 H6         314.1457  -332.1433  -182.7696 H6            1 RES     
    7320 H6         311.7293  -332.0698  -183.6481 H6            1 RES     
    7321 H6         312.0423  -332.5533  -181.9624 H6            1 RES     
    7322 H6         311.4258  -334.5189  -184.2152 H6            1 RES     
    7323 H6         311.7905  -335.0060  -182.5421 H6            1 RES     
    7324 H6         309.3899  -335.0184  -183.3208 H6            1 RES     
    7325 H6         309.3991  -333.2397  -183.4287 H6            1 RES     
    7326 H6         308.2787  -334.1930  -181.4083 H6            1 RES     
    7327 H6         309.7667  -335.0686  -180.9325 H6            1 RES     
    7328 H6         309.2958  -333.1230  -179.5018 H6            1 RES     
    7329 H6         310.8570  -332.9324  -180.3039 H6            1 RES     
    7330 H6         308.1842  -331.6236  -181.1666 H6            1 RES     
    7331 H6         309.5488  -330.8068  -180.3124 H6            1 RES     
    7332 H6         309.7692  -331.3750  -182.0033 H6            1 RES     
    7333 C0         315.8562  -337.2226  -194.5608 C0            1 RES     
    7334 C0         316.3831  -335.8072  -194.9027 C0            1 RES     
    7335 C0         317.5271  -335.6983  -195.9340 C0            1 RES     
    7336 C0         318.9600  -336.0417  -195.4566 C0            1 RES     
    7337 C0         319.3398  -335.3184  -194.1477 C0            1 RES     
    7338 C0         320.8411  -335.2842  -193.8268 C0            1 RES     
    7339 C0         321.5631  -334.1828  -194.6202 C0            1 RES     
    7340 C0         323.0456  -334.0833  -194.2314 C0            1 RES     
    7341 C0         323.6934  -332.8607  -194.8948 C0            1 RES     
    7342 C0         325.2331  -332.7665  -194.8286 C0            1 RES     
    7343 C0         325.9156  -332.6462  -193.4494 C0            1 RES     
    7344 C0         326.0496  -333.9817  -192.6895 C0            1 RES     
    7345 C0         326.8168  -333.8994  -191.3525 C0            1 RES     
    7346 C0         328.3648  -333.9032  -191.4138 C0            1 RES     
    7347 C0         329.0800  -332.6909  -192.0297 C0            1 RES     
    7348 C0         328.7162  -331.3754  -191.3441 C0            1 RES     
    7349 H6         316.6937  -337.9174  -194.3345 H6            1 RES     
    7350 H6         315.3795  -337.5846  -195.4993 H6            1 RES     
    7351 H6         315.5248  -335.2740  -195.3613 H6            1 RES     
    7352 H6         316.6838  -335.2341  -194.0155 H6            1 RES     
    7353 H6         317.2790  -336.2686  -196.8547 H6            1 RES     
    7354 H6         317.5676  -334.6226  -196.2173 H6            1 RES     
    7355 H6         319.0922  -337.1362  -195.3150 H6            1 RES     
    7356 H6         319.6387  -335.7205  -196.2749 H6            1 RES     
    7357 H6         318.9584  -334.2736  -194.1317 H6            1 RES     
    7358 H6         318.8542  -335.8804  -193.3390 H6            1 RES     
    7359 H6         321.2991  -336.2866  -193.9760 H6            1 RES     
    7360 H6         320.9434  -335.0148  -192.7531 H6            1 RES     
    7361 H6         321.4780  -334.3658  -195.7119 H6            1 RES     
    7362 H6         321.0710  -333.2120  -194.3837 H6            1 RES     
    7363 H6         323.1038  -333.9603  -193.1327 H6            1 RES     
    7364 H6         323.5596  -335.0167  -194.5461 H6            1 RES     
    7365 H6         323.4428  -332.8840  -195.9784 H6            1 RES     
    7366 H6         323.2432  -331.9383  -194.4641 H6            1 RES     
    7367 H6         325.6954  -333.6040  -195.3942 H6            1 RES     
    7368 H6         325.4764  -331.8298  -195.3788 H6            1 RES     
    7369 H6         325.4109  -331.8724  -192.8311 H6            1 RES     
    7370 H6         326.9265  -332.2813  -193.6703 H6            1 RES     
    7371 H6         325.0388  -334.3236  -192.4261 H6            1 RES     
    7372 H6         326.5134  -334.7634  -193.3292 H6            1 RES     
    7373 H6         326.5678  -334.8371  -190.8067 H6            1 RES     
    7374 H6         326.4300  -333.0620  -190.7340 H6            1 RES     
    7375 H6         328.7244  -333.9916  -190.3646 H6            1 RES     
    7376 H6         328.6995  -334.8158  -191.9538 H6            1 RES     
    7377 H6         330.1747  -332.8500  -191.9162 H6            1 RES     
    7378 H6         328.8979  -332.6294  -193.1166 H6            1 RES     
    7379 H6         328.9564  -331.4275  -190.2610 H6            1 RES     
    7380 H6         329.3005  -330.5481  -191.7989 H6            1 RES     
    7381 H6         327.6378  -331.1485  -191.4694 H6            1 RES     
    7382 C0         313.0577  -349.8100  -195.4303 C0            1 RES     
    7383 C1         312.3442  -348.4459  -195.3275 C1            1 RES     
    7384 C1         310.9788  -348.4265  -195.8915 C1            1 RES     
    7385 S2         310.7621  -346.7791  -196.5822 S2            1 RES     
    7386 C1         311.8205  -346.2759  -195.2072 C1            1 RES     
    7387 C1         312.7053  -347.2684  -194.8290 C1            1 RES     
    7388 C1         311.0362  -349.6339  -196.7020 C1            1 RES     
    7389 C1         312.1190  -350.4293  -196.4622 C1            1 RES     
    7390 C1         312.0909  -351.6227  -197.2061 C1            1 RES     
    7391 C1         310.9149  -351.7200  -197.9880 C1            1 RES     
    7392 S2         309.9559  -350.3402  -197.7414 S2            1 RES     
    7393 H3         313.6225  -347.0476  -194.3082 H3            1 RES     
    7394 H3         312.8650  -352.3791  -197.1689 H3            1 RES     
    7395 N4         311.5141  -353.6463  -199.4013 N4            1 RES     
    7396 C1         311.2532  -354.6390  -200.3029 C1            1 RES     
    7397 C1         309.9497  -354.8706  -200.7586 C1            1 RES     
    7398 C1         308.9271  -354.0678  -200.2690 C1            1 RES     
    7399 N4         307.6264  -354.2127  -200.6222 N4            1 RES     
    7400 S2         306.8897  -353.0248  -199.7426 S2            1 RES     
    7401 N4         308.1371  -352.3102  -198.9287 N4            1 RES     
    7402 C1         309.2147  -353.0263  -199.3454 C1            1 RES     
    7403 C1         310.5422  -352.8193  -198.9123 C1            1 RES     
    7404 H5         312.0640  -355.2513  -200.6760 H5            1 RES     
    7405 C0         312.9199  -350.5979  -194.0872 C0            1 RES     
    7406 C0         313.6464  -349.9396  -192.9100 C0            1 RES     
    7407 C0         313.4277  -350.5801  -191.5358 C0            1 RES     
    7408 C0         311.9813  -350.5720  -191.0160 C0            1 RES     
    7409 C0         311.2815  -349.2062  -191.1711 C0            1 RES     
    7410 C0         309.9623  -349.1416  -190.3919 C0            1 RES     
    7411 C0         310.2223  -348.8748  -188.9010 C0            1 RES     
    7412 C0         308.9237  -348.8708  -188.0936 C0            1 RES     
    7413 C0         309.1858  -348.3860  -186.6644 C0            1 RES     
    7414 C0         308.0475  -348.6038  -185.6475 C0            1 RES     
    7415 C0         306.6695  -347.9820  -185.9500 C0            1 RES     
    7416 C0         305.8154  -348.8123  -186.9342 C0            1 RES     
    7417 C0         304.4033  -348.2573  -187.2076 C0            1 RES     
    7418 C0         303.3034  -348.5586  -186.1611 C0            1 RES     
    7419 C0         303.4247  -347.9236  -184.7680 C0            1 RES     
    7420 C0         303.5306  -346.4006  -184.8174 C0            1 RES     
    7421 H6         311.8388  -350.6511  -193.8387 H6            1 RES     
    7422 H6         313.2847  -351.6409  -194.2114 H6            1 RES     
    7423 H6         314.7169  -350.0007  -193.0986 H6            1 RES     
    7424 H6         313.3613  -348.8743  -192.8292 H6            1 RES     
    7425 H6         313.8133  -351.6226  -191.5248 H6            1 RES     
    7426 H6         314.0419  -349.9875  -190.8210 H6            1 RES     
    7427 H6         311.3742  -351.3337  -191.5517 H6            1 RES     
    7428 H6         312.0370  -350.8789  -189.9512 H6            1 RES     
    7429 H6         311.9339  -348.3660  -190.8470 H6            1 RES     
    7430 H6         311.0596  -349.0682  -192.2511 H6            1 RES     
    7431 H6         309.3755  -350.0718  -190.5596 H6            1 RES     
    7432 H6         309.3666  -348.2839  -190.7746 H6            1 RES     
    7433 H6         310.8990  -349.6388  -188.4653 H6            1 RES     
    7434 H6         310.7150  -347.8798  -188.8169 H6            1 RES     
    7435 H6         308.2128  -348.1696  -188.5756 H6            1 RES     
    7436 H6         308.5149  -349.9049  -188.0889 H6            1 RES     
    7437 H6         310.0652  -348.9302  -186.2540 H6            1 RES     
    7438 H6         309.4481  -347.3051  -186.7082 H6            1 RES     
    7439 H6         307.9170  -349.6875  -185.4385 H6            1 RES     
    7440 H6         308.4188  -348.1345  -184.7089 H6            1 RES     
    7441 H6         306.7835  -346.9288  -186.2863 H6            1 RES     
    7442 H6         306.1516  -347.9664  -184.9835 H6            1 RES     
    7443 H6         306.3179  -348.8141  -187.9114 H6            1 RES     
    7444 H6         305.7356  -349.8701  -186.6017 H6            1 RES     
    7445 H6         304.0495  -348.7753  -188.1273 H6            1 RES     
    7446 H6         304.4551  -347.1760  -187.4544 H6            1 RES     
    7447 H6         302.3441  -348.2037  -186.5982 H6            1 RES     
    7448 H6         303.2205  -349.6604  -186.0350 H6            1 RES     
    7449 H6         302.5120  -348.1913  -184.1928 H6            1 RES     
    7450 H6         304.2696  -348.3567  -184.2054 H6            1 RES     
    7451 H6         302.6477  -345.9711  -185.3363 H6            1 RES     
    7452 H6         303.5671  -345.9993  -183.7829 H6            1 RES     
    7453 H6         304.4537  -346.0838  -185.3442 H6            1 RES     
    7454 C0         314.5324  -349.7736  -196.0091 C0            1 RES     
    7455 C0         315.4226  -348.6153  -195.4958 C0            1 RES     
    7456 C0         316.9167  -348.6331  -195.8852 C0            1 RES     
    7457 C0         317.8488  -349.6001  -195.1138 C0            1 RES     
    7458 C0         317.6891  -349.4853  -193.5834 C0            1 RES     
    7459 C0         318.8282  -350.0976  -192.7555 C0            1 RES     
    7460 C0         320.0403  -349.1548  -192.6785 C0            1 RES     
    7461 C0         321.1435  -349.7226  -191.7733 C0            1 RES     
    7462 C0         322.2534  -348.6840  -191.5642 C0            1 RES     
    7463 C0         323.5588  -349.1824  -190.9073 C0            1 RES     
    7464 C0         323.5073  -349.7313  -189.4656 C0            1 RES     
    7465 C0         322.9989  -351.1835  -189.3577 C0            1 RES     
    7466 C0         323.0328  -351.7845  -187.9363 C0            1 RES     
    7467 C0         324.3871  -352.3349  -187.4237 C0            1 RES     
    7468 C0         325.5301  -351.3440  -187.1550 C0            1 RES     
    7469 C0         325.1469  -350.2511  -186.1592 C0            1 RES     
    7470 H6         315.0063  -350.7597  -195.8127 H6            1 RES     
    7471 H6         314.5023  -349.6430  -197.1141 H6            1 RES     
    7472 H6         315.0106  -347.6960  -195.9611 H6            1 RES     
    7473 H6         315.3675  -348.4801  -194.4074 H6            1 RES     
    7474 H6         317.0333  -348.7752  -196.9810 H6            1 RES     
    7475 H6         317.2962  -347.6144  -195.6459 H6            1 RES     
    7476 H6         317.6812  -350.6567  -195.4154 H6            1 RES     
    7477 H6         318.8838  -349.3233  -195.4062 H6            1 RES     
    7478 H6         317.5582  -348.4279  -193.2637 H6            1 RES     
    7479 H6         316.7772  -350.0424  -193.3313 H6            1 RES     
    7480 H6         319.0967  -351.1061  -193.1395 H6            1 RES     
    7481 H6         318.4549  -350.2131  -191.7147 H6            1 RES     
    7482 H6         320.4536  -348.9640  -193.6910 H6            1 RES     
    7483 H6         319.6947  -348.1873  -192.2482 H6            1 RES     
    7484 H6         320.6920  -349.9587  -190.7904 H6            1 RES     
    7485 H6         321.5524  -350.6420  -192.2444 H6            1 RES     
    7486 H6         322.5523  -348.2941  -192.5623 H6            1 RES     
    7487 H6         321.8414  -347.8318  -190.9786 H6            1 RES     
    7488 H6         324.0622  -349.9243  -191.5640 H6            1 RES     
    7489 H6         324.2126  -348.2819  -190.8741 H6            1 RES     
    7490 H6         322.9301  -349.0457  -188.8080 H6            1 RES     
    7491 H6         324.5498  -349.7131  -189.1238 H6            1 RES     
    7492 H6         321.9407  -351.1940  -189.6545 H6            1 RES     
    7493 H6         323.5497  -351.8549  -190.0514 H6            1 RES     
    7494 H6         322.3761  -352.6825  -187.9755 H6            1 RES     
    7495 H6         322.5688  -351.0858  -187.2083 H6            1 RES     
    7496 H6         324.1763  -352.8532  -186.4620 H6            1 RES     
    7497 H6         324.7543  -353.1042  -188.1378 H6            1 RES     
    7498 H6         326.3825  -351.9175  -186.7296 H6            1 RES     
    7499 H6         325.9058  -350.9032  -188.0946 H6            1 RES     
    7500 H6         324.8246  -350.7037  -185.1974 H6            1 RES     
    7501 H6         326.0257  -349.5999  -185.9693 H6            1 RES     
    7502 H6         324.3273  -349.6202  -186.5596 H6            1 RES     
    7503 C0         310.1011  -359.6133  -203.1208 C0            1 RES     
    7504 C1         309.7064  -358.1783  -202.7140 C1            1 RES     
    7505 C1         308.8104  -357.4966  -203.6708 C1            1 RES     
    7506 S2         309.2757  -355.7592  -203.6185 S2            1 RES     
    7507 C1         309.6227  -356.1060  -201.8797 C1            1 RES     
    7508 C1         310.0065  -357.4168  -201.6674 C1            1 RES     
    7509 C1         309.0120  -358.3454  -204.8357 C1            1 RES     
    7510 C1         309.6699  -359.5138  -204.5815 C1            1 RES     
    7511 C1         309.7692  -360.3385  -205.7166 C1            1 RES     
    7512 C1         309.1169  -359.7650  -206.8342 C1            1 RES     
    7513 S2         308.4462  -358.2688  -206.3914 S2            1 RES     
    7514 H3         310.5861  -357.7101  -200.8075 H3            1 RES     
    7515 H3         310.2671  -361.3001  -205.7260 H3            1 RES     
    7516 N4         309.9308  -361.2689  -208.6070 N4            1 RES     
    7517 C1         309.9452  -361.7850  -209.8718 C1            1 RES     
    7518 C1         309.0016  -361.3795  -210.8235 C1            1 RES     
    7519 C1         308.0479  -360.4413  -210.4490 C1            1 RES     
    7520 N4         307.0746  -359.9905  -211.2777 N4            1 RES     
    7521 S2         306.2543  -358.9313  -210.3119 S2            1 RES     
    7522 N4         307.0727  -358.9952  -208.8783 N4            1 RES     
    7523 C1         308.0554  -359.8984  -209.1353 C1            1 RES     
    7524 C1         309.0255  -360.3277  -208.2042 C1            1 RES     
    7525 H5         310.6988  -362.5119  -210.1459 H5            1 RES     
    7526 C0         309.1876  -360.6543  -202.3958 C0            1 RES     
    7527 C0         309.3751  -360.6846  -200.8757 C0            1 RES     
    7528 C0         308.4062  -361.5751  -200.0916 C0            1 RES     
    7529 C0         306.9204  -361.1929  -200.1858 C0            1 RES     
    7530 C0         306.6610  -359.6854  -199.9869 C0            1 RES     
    7531 C0         305.1713  -359.3762  -199.7960 C0            1 RES     
    7532 C0         304.7331  -359.6744  -198.3535 C0            1 RES     
    7533 C0         303.2356  -359.4346  -198.1576 C0            1 RES     
    7534 C0         302.8712  -359.5228  -196.6724 C0            1 RES     
    7535 C0         301.3677  -359.5990  -196.3393 C0            1 RES     
    7536 C0         300.4531  -358.4577  -196.8272 C0            1 RES     
    7537 C0         300.0305  -358.5895  -198.3076 C0            1 RES     
    7538 C0         299.0598  -357.5033  -198.8124 C0            1 RES     
    7539 C0         297.5589  -357.6760  -198.4764 C0            1 RES     
    7540 C0         297.1203  -357.5695  -197.0083 C0            1 RES     
    7541 C0         297.5311  -356.2485  -196.3608 C0            1 RES     
    7542 H6         308.1324  -360.3797  -202.6075 H6            1 RES     
    7543 H6         309.3564  -361.6721  -202.8105 H6            1 RES     
    7544 H6         310.3703  -361.0739  -200.6672 H6            1 RES     
    7545 H6         309.2997  -359.6635  -200.4583 H6            1 RES     
    7546 H6         308.5282  -362.6398  -200.3866 H6            1 RES     
    7547 H6         308.7058  -361.4864  -199.0232 H6            1 RES     
    7548 H6         306.5083  -361.4863  -201.1757 H6            1 RES     
    7549 H6         306.3993  -361.7978  -199.4154 H6            1 RES     
    7550 H6         307.2284  -359.2770  -199.1221 H6            1 RES     
    7551 H6         307.0142  -359.1646  -200.9027 H6            1 RES     
    7552 H6         304.5678  -359.9342  -200.5458 H6            1 RES     
    7553 H6         305.0109  -358.2885  -199.9641 H6            1 RES     
    7554 H6         304.9556  -360.7245  -198.0720 H6            1 RES     
    7555 H6         305.3085  -359.0003  -197.6796 H6            1 RES     
    7556 H6         302.9937  -358.4138  -198.5167 H6            1 RES     
    7557 H6         302.6819  -360.2000  -198.7441 H6            1 RES     
    7558 H6         303.3222  -360.4453  -196.2441 H6            1 RES     
    7559 H6         303.3271  -358.6510  -196.1518 H6            1 RES     
    7560 H6         300.9451  -360.5700  -196.6764 H6            1 RES     
    7561 H6         301.3283  -359.5964  -195.2269 H6            1 RES     
    7562 H6         300.9166  -357.4701  -196.6145 H6            1 RES     
    7563 H6         299.5505  -358.5393  -196.2097 H6            1 RES     
    7564 H6         300.9278  -358.4868  -198.9336 H6            1 RES     
    7565 H6         299.5973  -359.5924  -198.5129 H6            1 RES     
    7566 H6         299.0957  -357.5609  -199.9236 H6            1 RES     
    7567 H6         299.4327  -356.4945  -198.5363 H6            1 RES     
    7568 H6         297.0153  -356.8836  -199.0367 H6            1 RES     
    7569 H6         297.2132  -358.6559  -198.8724 H6            1 RES     
    7570 H6         296.0116  -357.6421  -196.9797 H6            1 RES     
    7571 H6         297.4907  -358.4261  -196.4193 H6            1 RES     
    7572 H6         297.1067  -355.3941  -196.9291 H6            1 RES     
    7573 H6         297.1459  -356.2120  -195.3202 H6            1 RES     
    7574 H6         298.6352  -356.1506  -196.3246 H6            1 RES     
    7575 C0         311.6478  -359.9491  -203.0460 C0            1 RES     
    7576 C0         312.3904  -359.4021  -201.8022 C0            1 RES     
    7577 C0         313.8527  -359.8487  -201.5867 C0            1 RES     
    7578 C0         314.0940  -361.2701  -201.0208 C0            1 RES     
    7579 C0         313.2480  -361.5610  -199.7637 C0            1 RES     
    7580 C0         313.7085  -362.7614  -198.9242 C0            1 RES     
    7581 C0         314.8934  -362.3938  -198.0158 C0            1 RES     
    7582 C0         315.2949  -363.5646  -197.1065 C0            1 RES     
    7583 C0         316.3477  -363.1140  -196.0852 C0            1 RES     
    7584 C0         317.0547  -364.2242  -195.2779 C0            1 RES     
    7585 C0         316.2145  -365.1147  -194.3378 C0            1 RES     
    7586 C0         315.4448  -366.2434  -195.0537 C0            1 RES     
    7587 C0         314.6772  -367.2051  -194.1216 C0            1 RES     
    7588 C0         315.4850  -368.3365  -193.4380 C0            1 RES     
    7589 C0         316.5284  -367.9577  -192.3757 C0            1 RES     
    7590 C0         315.9368  -367.1457  -191.2253 C0            1 RES     
    7591 H6         311.7679  -361.0508  -203.1313 H6            1 RES     
    7592 H6         312.1758  -359.4974  -203.9157 H6            1 RES     
    7593 H6         312.4389  -358.3028  -201.9453 H6            1 RES     
    7594 H6         311.8492  -359.5830  -200.8639 H6            1 RES     
    7595 H6         314.4489  -359.6941  -202.5115 H6            1 RES     
    7596 H6         314.2617  -359.1580  -200.8155 H6            1 RES     
    7597 H6         313.8890  -362.0534  -201.7824 H6            1 RES     
    7598 H6         315.1742  -361.3174  -200.7669 H6            1 RES     
    7599 H6         313.1888  -360.6735  -199.0957 H6            1 RES     
    7600 H6         312.2379  -361.7943  -200.1256 H6            1 RES     
    7601 H6         313.9257  -363.6371  -199.5742 H6            1 RES     
    7602 H6         312.8688  -363.0335  -198.2484 H6            1 RES     
    7603 H6         315.7686  -362.0781  -198.6215 H6            1 RES     
    7604 H6         314.5800  -361.5399  -197.3731 H6            1 RES     
    7605 H6         314.3924  -363.8976  -196.5586 H6            1 RES     
    7606 H6         315.6914  -364.3872  -197.7393 H6            1 RES     
    7607 H6         317.1568  -362.5850  -196.6357 H6            1 RES     
    7608 H6         315.8808  -362.3834  -195.3873 H6            1 RES     
    7609 H6         317.6554  -364.8699  -195.9541 H6            1 RES     
    7610 H6         317.7740  -363.6773  -194.6276 H6            1 RES     
    7611 H6         315.5392  -364.4920  -193.7118 H6            1 RES     
    7612 H6         316.9475  -365.5797  -193.6668 H6            1 RES     
    7613 H6         314.6784  -365.7789  -195.6900 H6            1 RES     
    7614 H6         316.1175  -366.8332  -195.7132 H6            1 RES     
    7615 H6         313.9588  -367.7468  -194.7769 H6            1 RES     
    7616 H6         314.0679  -366.6329  -193.3904 H6            1 RES     
    7617 H6         314.7438  -369.0004  -192.9403 H6            1 RES     
    7618 H6         315.9911  -368.9397  -194.2231 H6            1 RES     
    7619 H6         316.9433  -368.9007  -191.9573 H6            1 RES     
    7620 H6         317.3851  -367.4289  -192.8281 H6            1 RES     
    7621 H6         315.1128  -367.7109  -190.7401 H6            1 RES     
    7622 H6         316.7254  -366.9473  -190.4695 H6            1 RES     
    7623 H6         315.5491  -366.1714  -191.5865 H6            1 RES     
    7624 C0         309.3374  -364.9281  -214.7466 C0            1 RES     
    7625 C1         309.0842  -363.6364  -213.9417 C1            1 RES     
    7626 C1         308.9069  -362.4255  -214.7696 C1            1 RES     
    7627 S2         309.6186  -361.0763  -213.8152 S2            1 RES     
    7628 C1         309.0170  -362.0211  -212.3977 C1            1 RES     
    7629 C1         308.9890  -363.3816  -212.6412 C1            1 RES     
    7630 C1         309.4712  -362.9058  -216.0221 C1            1 RES     
    7631 C1         309.6858  -364.2528  -216.0702 C1            1 RES     
    7632 C1         310.1530  -364.6833  -217.3251 C1            1 RES     
    7633 C1         310.2402  -363.6095  -218.2434 C1            1 RES     
    7634 S2         309.7454  -362.1736  -217.4832 S2            1 RES     
    7635 H3         309.0172  -364.1053  -211.8432 H3            1 RES     
    7636 H3         310.3968  -365.7116  -217.5615 H3            1 RES     
    7637 N4         311.4921  -364.7131  -220.0550 N4            1 RES     
    7638 C1         312.0087  -364.8018  -221.3166 C1            1 RES     
    7639 C1         311.7344  -363.8190  -222.2754 C1            1 RES     
    7640 C1         310.9212  -362.7524  -221.9132 C1            1 RES     
    7641 N4         310.5716  -361.7549  -222.7619 N4            1 RES     
    7642 S2         309.6134  -360.8043  -221.8101 S2            1 RES     
    7643 N4         309.6165  -361.5816  -220.3523 N4            1 RES     
    7644 C1         310.4053  -362.6624  -220.5918 C1            1 RES     
    7645 C1         310.7074  -363.6698  -219.6504 C1            1 RES     
    7646 H5         312.6437  -365.6382  -221.5785 H5            1 RES     
    7647 C0         308.0057  -365.7275  -214.9242 C0            1 RES     
    7648 C0         307.4337  -366.2702  -213.6108 C0            1 RES     
    7649 C0         306.0556  -366.9338  -213.6955 C0            1 RES     
    7650 C0         304.9026  -366.0261  -214.1527 C0            1 RES     
    7651 C0         304.8787  -364.6586  -213.4395 C0            1 RES     
    7652 C0         303.5717  -363.8978  -213.6932 C0            1 RES     
    7653 C0         302.4488  -364.4260  -212.7868 C0            1 RES     
    7654 C0         301.1192  -363.7251  -213.0688 C0            1 RES     
    7655 C0         300.0798  -364.1072  -212.0105 C0            1 RES     
    7656 C0         298.6181  -363.7237  -212.3160 C0            1 RES     
    7657 C0         298.2902  -362.2382  -212.5666 C0            1 RES     
    7658 C0         298.6104  -361.7644  -214.0021 C0            1 RES     
    7659 C0         298.2318  -360.3021  -214.3105 C0            1 RES     
    7660 C0         296.7520  -360.0056  -214.6539 C0            1 RES     
    7661 C0         295.6952  -360.1837  -213.5537 C0            1 RES     
    7662 C0         295.9946  -359.3576  -212.3043 C0            1 RES     
    7663 H6         307.2567  -365.0375  -215.3673 H6            1 RES     
    7664 H6         308.1505  -366.5659  -215.6400 H6            1 RES     
    7665 H6         308.1106  -367.0388  -213.2411 H6            1 RES     
    7666 H6         307.3683  -365.4638  -212.8573 H6            1 RES     
    7667 H6         306.0940  -367.8319  -214.3494 H6            1 RES     
    7668 H6         305.8187  -367.2794  -212.6642 H6            1 RES     
    7669 H6         304.9658  -365.8434  -215.2474 H6            1 RES     
    7670 H6         303.9702  -366.5969  -213.9634 H6            1 RES     
    7671 H6         305.0307  -364.7596  -212.3425 H6            1 RES     
    7672 H6         305.7204  -364.0580  -213.8462 H6            1 RES     
    7673 H6         303.3047  -363.9496  -214.7721 H6            1 RES     
    7674 H6         303.7265  -362.8292  -213.4268 H6            1 RES     
    7675 H6         302.3004  -365.5175  -212.9207 H6            1 RES     
    7676 H6         302.7506  -364.2390  -211.7314 H6            1 RES     
    7677 H6         301.2824  -362.6295  -213.0187 H6            1 RES     
    7678 H6         300.7764  -364.0263  -214.0828 H6            1 RES     
    7679 H6         300.0818  -365.2127  -211.8850 H6            1 RES     
    7680 H6         300.3912  -363.6570  -211.0412 H6            1 RES     
    7681 H6         298.2283  -364.3278  -213.1635 H6            1 RES     
    7682 H6         298.0530  -364.0345  -211.4088 H6            1 RES     
    7683 H6         298.7777  -361.5978  -211.8000 H6            1 RES     
    7684 H6         297.2061  -362.1626  -212.4199 H6            1 RES     
    7685 H6         299.6981  -361.8171  -214.1488 H6            1 RES     
    7686 H6         298.1423  -362.4317  -214.7579 H6            1 RES     
    7687 H6         298.7826  -360.0390  -215.2415 H6            1 RES     
    7688 H6         298.6155  -359.6286  -213.5155 H6            1 RES     
    7689 H6         296.7085  -358.9424  -214.9779 H6            1 RES     
    7690 H6         296.4545  -360.6283  -215.5259 H6            1 RES     
    7691 H6         294.7178  -359.8515  -213.9656 H6            1 RES     
    7692 H6         295.5641  -361.2489  -213.2967 H6            1 RES     
    7693 H6         296.0692  -358.2807  -212.5649 H6            1 RES     
    7694 H6         295.1743  -359.4911  -211.5683 H6            1 RES     
    7695 H6         296.9420  -359.6849  -211.8297 H6            1 RES     
    7696 C0         310.5610  -365.8114  -214.2635 C0            1 RES     
    7697 C0         310.7087  -365.9656  -212.7298 C0            1 RES     
    7698 C0         311.7713  -366.9573  -212.2084 C0            1 RES     
    7699 C0         311.4307  -368.4674  -212.2586 C0            1 RES     
    7700 C0         310.0485  -368.7855  -211.6512 C0            1 RES     
    7701 C0         309.8078  -370.2610  -211.3006 C0            1 RES     
    7702 C0         310.4599  -370.6364  -209.9597 C0            1 RES     
    7703 C0         310.1412  -372.0846  -209.5602 C0            1 RES     
    7704 C0         310.6423  -372.3717  -208.1386 C0            1 RES     
    7705 C0         310.6458  -373.8480  -207.6862 C0            1 RES     
    7706 C0         309.3034  -374.6045  -207.5950 C0            1 RES     
    7707 C0         308.7667  -375.1096  -208.9499 C0            1 RES     
    7708 C0         307.4765  -375.9532  -208.8690 C0            1 RES     
    7709 C0         307.6212  -377.4487  -208.4913 C0            1 RES     
    7710 C0         308.0807  -377.8077  -207.0699 C0            1 RES     
    7711 C0         307.1821  -377.2133  -205.9873 C0            1 RES     
    7712 H6         310.4901  -366.8032  -214.7603 H6            1 RES     
    7713 H6         311.5169  -365.3492  -214.5977 H6            1 RES     
    7714 H6         311.0327  -364.9703  -212.3615 H6            1 RES     
    7715 H6         309.7615  -366.2040  -212.2281 H6            1 RES     
    7716 H6         312.7541  -366.7661  -212.6902 H6            1 RES     
    7717 H6         311.8872  -366.7235  -211.1263 H6            1 RES     
    7718 H6         311.4668  -368.8601  -213.2978 H6            1 RES     
    7719 H6         312.2252  -368.9782  -211.6744 H6            1 RES     
    7720 H6         309.8511  -368.1767  -210.7413 H6            1 RES     
    7721 H6         309.3110  -368.5163  -212.4189 H6            1 RES     
    7722 H6         310.1342  -370.9224  -212.1329 H6            1 RES     
    7723 H6         308.7126  -370.3937  -211.1640 H6            1 RES     
    7724 H6         311.5605  -370.4987  -210.0067 H6            1 RES     
    7725 H6         310.0504  -369.9570  -209.1778 H6            1 RES     
    7726 H6         309.0414  -372.2106  -209.5783 H6            1 RES     
    7727 H6         310.6232  -372.7697  -210.2902 H6            1 RES     
    7728 H6         311.7014  -372.0378  -208.0731 H6            1 RES     
    7729 H6         310.0510  -371.7614  -207.4198 H6            1 RES     
    7730 H6         311.3578  -374.4385  -208.3022 H6            1 RES     
    7731 H6         311.0574  -373.8190  -206.6523 H6            1 RES     
    7732 H6         308.5469  -373.9923  -207.0577 H6            1 RES     
    7733 H6         309.5198  -375.4804  -206.9706 H6            1 RES     
    7734 H6         308.5049  -374.2323  -209.5579 H6            1 RES     
    7735 H6         309.5433  -375.6820  -209.5017 H6            1 RES     
    7736 H6         307.0690  -375.9765  -209.9046 H6            1 RES     
    7737 H6         306.7164  -375.4407  -208.2422 H6            1 RES     
    7738 H6         306.6192  -377.9109  -208.6332 H6            1 RES     
    7739 H6         308.3127  -377.9350  -209.2137 H6            1 RES     
    7740 H6         308.0526  -378.9152  -206.9745 H6            1 RES     
    7741 H6         309.1337  -377.5203  -206.9058 H6            1 RES     
    7742 H6         306.1345  -377.5546  -206.1277 H6            1 RES     
    7743 H6         307.5348  -377.5485  -204.9894 H6            1 RES     
    7744 H6         307.2124  -376.1049  -206.0119 H6            1 RES     
    7745 C0         313.2069  -365.9207  -226.9133 C0            1 RES     
    7746 C1         312.8567  -364.9244  -225.7886 C1            1 RES     
    7747 C1         313.3363  -363.5465  -226.0217 C1            1 RES     
    7748 S2         313.7522  -362.8956  -224.3965 S2            1 RES     
    7749 C1         312.3754  -363.9278  -223.8462 C1            1 RES     
    7750 C1         312.2030  -365.0475  -224.6384 C1            1 RES     
    7751 C1         314.3250  -363.8080  -227.0571 C1            1 RES     
    7752 C1         314.2696  -365.0618  -227.5934 C1            1 RES     
    7753 C1         315.1859  -365.2431  -228.6450 C1            1 RES     
    7754 C1         315.9086  -364.0563  -228.9148 C1            1 RES     
    7755 S2         315.4009  -362.8312  -227.8537 S2            1 RES     
    7756 H3         311.7048  -365.9319  -224.2766 H3            1 RES     
    7757 H3         315.3075  -366.1707  -229.1904 H3            1 RES     
    7758 N4         317.6321  -364.9546  -230.4279 N4            1 RES     
    7759 C1         318.6605  -364.8501  -231.3212 C1            1 RES     
    7760 C1         319.0753  -363.5997  -231.7954 C1            1 RES     
    7761 C1         318.4133  -362.4675  -231.3374 C1            1 RES     
    7762 N4         318.7137  -361.2090  -231.7416 N4            1 RES     
    7763 S2         317.6231  -360.2998  -230.8981 S2            1 RES     
    7764 N4         316.7775  -361.4166  -230.0223 N4            1 RES     
    7765 C1         317.3571  -362.5886  -230.3938 C1            1 RES     
    7766 C1         316.9697  -363.8659  -229.9344 C1            1 RES     
    7767 H5         319.1668  -365.7436  -231.6631 H5            1 RES     
    7768 C0         311.9957  -366.0883  -227.8874 C0            1 RES     
    7769 C0         310.7722  -366.7455  -227.2409 C0            1 RES     
    7770 C0         309.5033  -366.8035  -228.0971 C0            1 RES     
    7771 C0         308.9110  -365.4463  -228.5089 C0            1 RES     
    7772 C0         308.8158  -364.4398  -227.3439 C0            1 RES     
    7773 C0         307.9657  -363.2160  -227.7063 C0            1 RES     
    7774 C0         306.4678  -363.5394  -227.5913 C0            1 RES     
    7775 C0         305.6004  -362.3519  -228.0109 C0            1 RES     
    7776 C0         304.1298  -362.6216  -227.6775 C0            1 RES     
    7777 C0         303.0986  -361.6593  -228.3001 C0            1 RES     
    7778 C0         303.2267  -360.1538  -227.9933 C0            1 RES     
    7779 C0         304.2794  -359.4296  -228.8622 C0            1 RES     
    7780 C0         304.3873  -357.9091  -228.6317 C0            1 RES     
    7781 C0         303.3418  -357.0059  -229.3293 C0            1 RES     
    7782 C0         301.8761  -357.1013  -228.8806 C0            1 RES     
    7783 C0         301.6960  -356.8488  -227.3849 C0            1 RES     
    7784 H6         311.7003  -365.0750  -228.2330 H6            1 RES     
    7785 H6         312.2987  -366.6709  -228.7847 H6            1 RES     
    7786 H6         311.0256  -367.7802  -227.0159 H6            1 RES     
    7787 H6         310.5129  -366.2312  -226.2971 H6            1 RES     
    7788 H6         309.6739  -367.4182  -229.0074 H6            1 RES     
    7789 H6         308.7400  -367.3259  -227.4776 H6            1 RES     
    7790 H6         309.5240  -364.9857  -229.3137 H6            1 RES     
    7791 H6         307.9108  -365.6658  -228.9361 H6            1 RES     
    7792 H6         308.4018  -364.9074  -226.4238 H6            1 RES     
    7793 H6         309.8480  -364.0969  -227.1170 H6            1 RES     
    7794 H6         308.2428  -362.8466  -228.7185 H6            1 RES     
    7795 H6         308.1789  -362.4071  -226.9733 H6            1 RES     
    7796 H6         306.1923  -364.4098  -228.2221 H6            1 RES     
    7797 H6         306.2581  -363.7951  -226.5282 H6            1 RES     
    7798 H6         305.9294  -361.4586  -227.4424 H6            1 RES     
    7799 H6         305.7329  -362.1943  -229.1036 H6            1 RES     
    7800 H6         303.8563  -363.6356  -228.0446 H6            1 RES     
    7801 H6         304.0207  -362.6229  -226.5697 H6            1 RES     
    7802 H6         303.0523  -361.8010  -229.4015 H6            1 RES     
    7803 H6         302.1204  -361.9946  -227.8882 H6            1 RES     
    7804 H6         303.4025  -359.9918  -226.9078 H6            1 RES     
    7805 H6         302.2427  -359.7344  -228.2353 H6            1 RES     
    7806 H6         305.2710  -359.8300  -228.6091 H6            1 RES     
    7807 H6         304.1100  -359.6255  -229.9432 H6            1 RES     
    7808 H6         305.3554  -357.6037  -229.0887 H6            1 RES     
    7809 H6         304.4670  -357.6884  -227.5464 H6            1 RES     
    7810 H6         303.6665  -355.9556  -229.1596 H6            1 RES     
    7811 H6         303.3827  -357.1905  -230.4252 H6            1 RES     
    7812 H6         301.3005  -356.3298  -229.4364 H6            1 RES     
    7813 H6         301.4336  -358.0699  -229.1702 H6            1 RES     
    7814 H6         302.0940  -355.8481  -227.1139 H6            1 RES     
    7815 H6         300.6155  -356.8839  -227.1322 H6            1 RES     
    7816 H6         302.2167  -357.6234  -226.7861 H6            1 RES     
    7817 C0         313.8520  -367.2898  -226.4439 C0            1 RES     
    7818 C0         313.2153  -367.9314  -225.1867 C0            1 RES     
    7819 C0         313.6830  -369.3487  -224.7906 C0            1 RES     
    7820 C0         313.1213  -370.5433  -225.6007 C0            1 RES     
    7821 C0         311.5852  -370.4985  -225.7383 C0            1 RES     
    7822 C0         310.9243  -371.8170  -226.1655 C0            1 RES     
    7823 C0         310.7687  -372.7813  -224.9782 C0            1 RES     
    7824 C0         310.0227  -374.0617  -225.3819 C0            1 RES     
    7825 C0         309.7164  -374.9168  -224.1451 C0            1 RES     
    7826 C0         309.2157  -376.3551  -224.3994 C0            1 RES     
    7827 C0         307.8751  -376.5600  -225.1366 C0            1 RES     
    7828 C0         307.9649  -376.4113  -226.6692 C0            1 RES     
    7829 C0         306.6570  -376.7092  -227.4330 C0            1 RES     
    7830 C0         306.3093  -378.1940  -227.7057 C0            1 RES     
    7831 C0         305.9534  -379.0974  -226.5150 C0            1 RES     
    7832 C0         304.7819  -378.5630  -225.6935 C0            1 RES     
    7833 H6         313.8358  -367.9936  -227.3041 H6            1 RES     
    7834 H6         314.9205  -367.1321  -226.1744 H6            1 RES     
    7835 H6         313.5104  -367.2790  -224.3390 H6            1 RES     
    7836 H6         312.1177  -367.9439  -225.2190 H6            1 RES     
    7837 H6         314.7923  -369.3968  -224.7490 H6            1 RES     
    7838 H6         313.3105  -369.5032  -223.7531 H6            1 RES     
    7839 H6         313.5726  -370.5974  -226.6151 H6            1 RES     
    7840 H6         313.4231  -371.4565  -225.0454 H6            1 RES     
    7841 H6         311.0997  -370.1566  -224.7976 H6            1 RES     
    7842 H6         311.3730  -369.7655  -226.5278 H6            1 RES     
    7843 H6         311.4730  -372.2752  -227.0174 H6            1 RES     
    7844 H6         309.8951  -371.5746  -226.5089 H6            1 RES     
    7845 H6         311.7605  -373.0477  -224.5567 H6            1 RES     
    7846 H6         310.1764  -372.2620  -224.1907 H6            1 RES     
    7847 H6         309.0650  -373.7662  -225.8520 H6            1 RES     
    7848 H6         310.6512  -374.6278  -226.1023 H6            1 RES     
    7849 H6         310.6572  -375.0277  -223.5619 H6            1 RES     
    7850 H6         308.9851  -374.3735  -223.5057 H6            1 RES     
    7851 H6         310.0051  -376.9552  -224.9012 H6            1 RES     
    7852 H6         309.0796  -376.7842  -223.3812 H6            1 RES     
    7853 H6         307.0895  -375.9013  -224.7068 H6            1 RES     
    7854 H6         307.5915  -377.5964  -224.9147 H6            1 RES     
    7855 H6         308.2022  -375.3619  -226.8935 H6            1 RES     
    7856 H6         308.7825  -377.0379  -227.0866 H6            1 RES     
    7857 H6         306.7986  -376.2761  -228.4486 H6            1 RES     
    7858 H6         305.8061  -376.1635  -226.9730 H6            1 RES     
    7859 H6         305.4290  -378.1947  -228.3861 H6            1 RES     
    7860 H6         307.1522  -378.6633  -228.2587 H6            1 RES     
    7861 H6         305.6681  -380.0933  -226.9190 H6            1 RES     
    7862 H6         306.8328  -379.2762  -225.8724 H6            1 RES     
    7863 H6         303.8853  -378.4406  -226.3376 H6            1 RES     
    7864 H6         304.5417  -379.2816  -224.8820 H6            1 RES     
    7865 H6         305.0354  -377.5879  -225.2299 H6            1 RES     
    7866 C0         322.1447  -364.6281  -235.9927 C0            1 RES     
    7867 C1         321.5009  -363.9514  -234.7646 C1            1 RES     
    7868 C1         322.2913  -362.8409  -234.1946 C1            1 RES     
    7869 S2         321.9973  -362.8964  -232.4202 S2            1 RES     
    7870 C1         320.3540  -363.4674  -232.9078 C1            1 RES     
    7871 C1         320.3672  -364.1601  -234.1039 C1            1 RES     
    7872 C1         323.5823  -363.1280  -234.8021 C1            1 RES     
    7873 C1         323.5471  -364.0572  -235.8011 C1            1 RES     
    7874 C1         324.7994  -364.2423  -236.4143 C1            1 RES     
    7875 C1         325.7784  -363.3785  -235.8674 C1            1 RES     
    7876 S2         325.0747  -362.4235  -234.6519 S2            1 RES     
    7877 H3         319.5954  -364.8658  -234.3638 H3            1 RES     
    7878 H3         324.9838  -364.9454  -237.2170 H3            1 RES     
    7879 N4         327.8031  -364.3556  -236.8738 N4            1 RES     
    7880 C1         329.1313  -364.3757  -237.1931 C1            1 RES     
    7881 C1         329.9566  -363.2832  -236.9006 C1            1 RES     
    7882 C1         329.3910  -362.1764  -236.2801 C1            1 RES     
    7883 N4         330.0866  -361.0556  -235.9680 N4            1 RES     
    7884 S2         328.9262  -360.1028  -235.2800 S2            1 RES     
    7885 N4         327.5659  -361.0382  -235.3405 N4            1 RES     
    7886 C1         328.0118  -362.1756  -235.9364 C1            1 RES     
    7887 C1         327.2117  -363.2975  -236.2426 C1            1 RES     
    7888 H5         329.5544  -365.2490  -237.6725 H5            1 RES     
    7889 C0         321.5404  -364.0472  -237.3123 C0            1 RES     
    7890 C0         320.0555  -364.3713  -237.5042 C0            1 RES     
    7891 C0         319.3667  -363.7072  -238.7006 C0            1 RES     
    7892 C0         319.3205  -362.1711  -238.6784 C0            1 RES     
    7893 C0         318.8779  -361.5903  -237.3196 C0            1 RES     
    7894 C0         318.5613  -360.0924  -237.4075 C0            1 RES     
    7895 C0         317.1605  -359.8650  -237.9971 C0            1 RES     
    7896 C0         316.8493  -358.3761  -238.1541 C0            1 RES     
    7897 C0         315.3779  -358.1756  -238.5300 C0            1 RES     
    7898 C0         314.9797  -356.7659  -239.0110 C0            1 RES     
    7899 C0         315.2358  -355.5733  -238.0679 C0            1 RES     
    7900 C0         316.6938  -355.0623  -238.0938 C0            1 RES     
    7901 C0         316.9719  -353.8265  -237.2149 C0            1 RES     
    7902 C0         316.5859  -352.4418  -237.7883 C0            1 RES     
    7903 C0         315.0974  -352.1230  -237.9926 C0            1 RES     
    7904 C0         314.2772  -352.2746  -236.7130 C0            1 RES     
    7905 H6         321.6498  -362.9426  -237.2737 H6            1 RES     
    7906 H6         322.1155  -364.4082  -238.1928 H6            1 RES     
    7907 H6         319.9635  -365.4439  -237.6670 H6            1 RES     
    7908 H6         319.4823  -364.1002  -236.5984 H6            1 RES     
    7909 H6         319.8284  -364.0444  -239.6538 H6            1 RES     
    7910 H6         318.3151  -364.0723  -238.6894 H6            1 RES     
    7911 H6         320.3200  -361.7511  -238.9241 H6            1 RES     
    7912 H6         318.6254  -361.8740  -239.4905 H6            1 RES     
    7913 H6         317.9925  -362.1231  -236.9089 H6            1 RES     
    7914 H6         319.7203  -361.7311  -236.6088 H6            1 RES     
    7915 H6         319.3545  -359.5694  -237.9865 H6            1 RES     
    7916 H6         318.5510  -359.6716  -236.3781 H6            1 RES     
    7917 H6         317.0566  -360.3476  -238.9910 H6            1 RES     
    7918 H6         316.4229  -360.3274  -237.3029 H6            1 RES     
    7919 H6         317.0332  -357.8746  -237.1824 H6            1 RES     
    7920 H6         317.5160  -357.9636  -238.9427 H6            1 RES     
    7921 H6         315.1219  -358.8632  -239.3663 H6            1 RES     
    7922 H6         314.7546  -358.4630  -237.6537 H6            1 RES     
    7923 H6         315.4391  -356.5499  -239.9997 H6            1 RES     
    7924 H6         313.8797  -356.8261  -239.1702 H6            1 RES     
    7925 H6         314.8989  -355.8140  -237.0364 H6            1 RES     
    7926 H6         314.5904  -354.7725  -238.4483 H6            1 RES     
    7927 H6         317.3440  -355.8524  -237.6933 H6            1 RES     
    7928 H6         317.0274  -354.8552  -239.1337 H6            1 RES     
    7929 H6         318.0791  -353.7756  -237.1095 H6            1 RES     
    7930 H6         316.5643  -353.9802  -236.1935 H6            1 RES     
    7931 H6         316.9872  -351.6826  -237.0813 H6            1 RES     
    7932 H6         317.1088  -352.2971  -238.7590 H6            1 RES     
    7933 H6         315.0204  -351.0679  -238.3334 H6            1 RES     
    7934 H6         314.6683  -352.7317  -238.8071 H6            1 RES     
    7935 H6         314.6834  -351.6159  -235.9165 H6            1 RES     
    7936 H6         313.2242  -351.9856  -236.9131 H6            1 RES     
    7937 H6         314.2862  -353.3252  -236.3579 H6            1 RES     
    7938 C0         322.2063  -366.2110  -235.9530 C0            1 RES     
    7939 C0         320.9350  -366.9153  -235.4188 C0            1 RES     
    7940 C0         320.8703  -368.4544  -235.5250 C0            1 RES     
    7941 C0         320.5440  -369.0660  -236.9101 C0            1 RES     
    7942 C0         319.3029  -368.4251  -237.5654 C0            1 RES     
    7943 C0         318.6844  -369.2226  -238.7228 C0            1 RES     
    7944 C0         317.7957  -370.3670  -238.2085 C0            1 RES     
    7945 C0         317.1007  -371.1067  -239.3611 C0            1 RES     
    7946 C0         316.0806  -372.1142  -238.8143 C0            1 RES     
    7947 C0         315.4934  -373.1268  -239.8211 C0            1 RES     
    7948 C0         314.6578  -372.6014  -241.0078 C0            1 RES     
    7949 C0         315.4963  -372.0517  -242.1799 C0            1 RES     
    7950 C0         314.6834  -371.6124  -243.4163 C0            1 RES     
    7951 C0         314.2269  -372.7165  -244.4024 C0            1 RES     
    7952 C0         313.1770  -373.7350  -243.9325 C0            1 RES     
    7953 C0         311.8849  -373.0772  -243.4522 C0            1 RES     
    7954 H6         322.4666  -366.5734  -236.9710 H6            1 RES     
    7955 H6         323.0232  -366.5411  -235.2728 H6            1 RES     
    7956 H6         320.9094  -366.6965  -234.3312 H6            1 RES     
    7957 H6         320.0080  -366.5161  -235.8514 H6            1 RES     
    7958 H6         321.7911  -368.9142  -235.1063 H6            1 RES     
    7959 H6         320.0252  -368.7603  -234.8683 H6            1 RES     
    7960 H6         321.4050  -368.9799  -237.6079 H6            1 RES     
    7961 H6         320.3592  -370.1462  -236.7301 H6            1 RES     
    7962 H6         318.5039  -368.2228  -236.8183 H6            1 RES     
    7963 H6         319.6413  -367.4678  -237.9835 H6            1 RES     
    7964 H6         319.4725  -369.5768  -239.4229 H6            1 RES     
    7965 H6         318.0143  -368.5317  -239.2791 H6            1 RES     
    7966 H6         318.3919  -371.0885  -237.6114 H6            1 RES     
    7967 H6         317.0131  -369.9239  -237.5514 H6            1 RES     
    7968 H6         316.5627  -370.3576  -239.9735 H6            1 RES     
    7969 H6         317.8732  -371.6240  -239.9694 H6            1 RES     
    7970 H6         316.5859  -372.7273  -238.0357 H6            1 RES     
    7971 H6         315.2543  -371.5556  -238.3203 H6            1 RES     
    7972 H6         316.2926  -373.7973  -240.2044 H6            1 RES     
    7973 H6         314.8065  -373.7559  -239.2114 H6            1 RES     
    7974 H6         313.9076  -371.8594  -240.6579 H6            1 RES     
    7975 H6         314.1070  -373.4786  -241.3700 H6            1 RES     
    7976 H6         316.0111  -371.1453  -241.8311 H6            1 RES     
    7977 H6         316.2742  -372.7807  -242.4943 H6            1 RES     
    7978 H6         315.3745  -370.9825  -244.0203 H6            1 RES     
    7979 H6         313.8409  -370.9553  -243.1134 H6            1 RES     
    7980 H6         313.7981  -372.1955  -245.2870 H6            1 RES     
    7981 H6         315.1218  -373.2760  -244.7526 H6            1 RES     
    7982 H6         312.9319  -374.3915  -244.7958 H6            1 RES     
    7983 H6         313.5881  -374.4032  -243.1561 H6            1 RES     
    7984 H6         311.4488  -372.4522  -244.2602 H6            1 RES     
    7985 H6         311.1513  -373.8631  -243.1750 H6            1 RES     
    7986 H6         312.0702  -372.4450  -242.5600 H6            1 RES     
    7987 C0         334.3920  -364.0763  -239.6925 C0            1 RES     
    7988 C1         333.3852  -363.6052  -238.6225 C1            1 RES     
    7989 C1         334.0058  -363.0808  -237.3885 C1            1 RES     
    7990 S2         332.8948  -363.5448  -236.0512 S2            1 RES     
    7991 C1         331.6094  -363.3057  -237.2980 C1            1 RES     
    7992 C1         332.0577  -363.5702  -238.5785 C1            1 RES     
    7993 C1         335.3460  -363.6268  -237.5426 C1            1 RES     
    7994 C1         335.6126  -364.1405  -238.7785 C1            1 RES     
    7995 C1         336.9423  -364.5806  -238.9079 C1            1 RES     
    7996 C1         337.6875  -364.3362  -237.7295 C1            1 RES     
    7997 S2         336.6896  -363.5937  -236.5730 S2            1 RES     
    7998 H3         331.3835  -363.8352  -239.3764 H3            1 RES     
    7999 H3         337.3471  -365.0326  -239.8048 H3            1 RES     
    8000 N4         339.7125  -365.6420  -238.2403 N4            1 RES     
    8001 C1         340.9988  -366.0506  -238.0284 C1            1 RES     
    8002 C1         341.7785  -365.4731  -237.0190 C1            1 RES     
    8003 C1         341.2129  -364.4718  -236.2397 C1            1 RES     
    8004 N4         341.8775  -363.8277  -235.2493 N4            1 RES     
    8005 S2         340.7403  -362.7651  -234.6970 S2            1 RES     
    8006 N4         339.4220  -363.0769  -235.6426 N4            1 RES     
    8007 C1         339.8674  -364.0688  -236.4583 C1            1 RES     
    8008 C1         339.1102  -364.6774  -237.4824 C1            1 RES     
    8009 H5         341.4204  -366.8353  -238.6433 H5            1 RES     
    8010 C0         334.6184  -362.9542  -240.7571 C0            1 RES     
    8011 C0         333.3753  -362.6418  -241.5961 C0            1 RES     
    8012 C0         333.4866  -361.4517  -242.5541 C0            1 RES     
    8013 C0         333.7354  -360.0846  -241.8972 C0            1 RES     
    8014 C0         332.8198  -359.8101  -240.6865 C0            1 RES     
    8015 C0         332.8822  -358.3457  -240.2357 C0            1 RES     
    8016 C0         332.0086  -357.4599  -241.1377 C0            1 RES     
    8017 C0         332.1070  -355.9850  -240.7460 C0            1 RES     
    8018 C0         331.0655  -355.1601  -241.5084 C0            1 RES     
    8019 C0         331.2288  -353.6281  -241.4503 C0            1 RES     
    8020 C0         331.2294  -352.9459  -240.0676 C0            1 RES     
    8021 C0         332.5900  -353.0192  -239.3388 C0            1 RES     
    8022 C0         332.6485  -352.2881  -237.9828 C0            1 RES     
    8023 C0         332.8616  -350.7553  -238.0074 C0            1 RES     
    8024 C0         331.7465  -349.8703  -238.5836 C0            1 RES     
    8025 C0         330.4028  -350.0815  -237.8887 C0            1 RES     
    8026 H6         334.9087  -362.0299  -240.2139 H6            1 RES     
    8027 H6         335.4616  -363.2238  -241.4299 H6            1 RES     
    8028 H6         333.1656  -363.5076  -242.2221 H6            1 RES     
    8029 H6         332.5041  -362.4598  -240.9401 H6            1 RES     
    8030 H6         334.2721  -361.6374  -243.3183 H6            1 RES     
    8031 H6         332.5095  -361.3935  -243.0844 H6            1 RES     
    8032 H6         334.7907  -360.0062  -241.5566 H6            1 RES     
    8033 H6         333.5862  -359.3294  -242.6962 H6            1 RES     
    8034 H6         331.7614  -360.0783  -240.8971 H6            1 RES     
    8035 H6         333.1740  -360.4512  -239.8510 H6            1 RES     
    8036 H6         333.9401  -358.0029  -240.2021 H6            1 RES     
    8037 H6         332.4631  -358.2734  -239.2081 H6            1 RES     
    8038 H6         332.3009  -357.5556  -242.2040 H6            1 RES     
    8039 H6         330.9550  -357.8034  -241.0298 H6            1 RES     
    8040 H6         331.8976  -355.8953  -239.6608 H6            1 RES     
    8041 H6         333.1353  -355.6319  -240.9793 H6            1 RES     
    8042 H6         331.1122  -355.4278  -242.5873 H6            1 RES     
    8043 H6         330.0568  -355.4444  -241.1334 H6            1 RES     
    8044 H6         332.1370  -353.3140  -242.0086 H6            1 RES     
    8045 H6         330.3511  -353.2329  -242.0092 H6            1 RES     
    8046 H6         330.4009  -353.3392  -239.4397 H6            1 RES     
    8047 H6         331.0144  -351.8910  -240.2762 H6            1 RES     
    8048 H6         332.8016  -354.0724  -239.1073 H6            1 RES     
    8049 H6         333.4132  -352.6520  -239.9893 H6            1 RES     
    8050 H6         333.5563  -352.6784  -237.4698 H6            1 RES     
    8051 H6         331.7812  -352.5757  -237.3519 H6            1 RES     
    8052 H6         333.0151  -350.4395  -236.9519 H6            1 RES     
    8053 H6         333.8017  -350.5327  -238.5580 H6            1 RES     
    8054 H6         332.0488  -348.8099  -238.4435 H6            1 RES     
    8055 H6         331.6499  -350.0115  -239.6739 H6            1 RES     
    8056 H6         330.4980  -349.8825  -236.8003 H6            1 RES     
    8057 H6         329.6528  -349.3829  -238.3153 H6            1 RES     
    8058 H6         330.0361  -351.1171  -238.0399 H6            1 RES     
    8059 C0         334.1176  -365.5085  -240.3125 C0            1 RES     
    8060 C0         332.6363  -365.8238  -240.6350 C0            1 RES     
    8061 C0         332.3321  -367.1282  -241.4032 C0            1 RES     
    8062 C0         332.5958  -367.1415  -242.9294 C0            1 RES     
    8063 C0         331.9709  -365.9294  -243.6512 C0            1 RES     
    8064 C0         331.8393  -366.0672  -245.1748 C0            1 RES     
    8065 C0         330.6095  -366.9050  -245.5619 C0            1 RES     
    8066 C0         330.4213  -366.9652  -247.0850 C0            1 RES     
    8067 C0         329.0901  -367.6436  -247.4346 C0            1 RES     
    8068 C0         328.8714  -368.0272  -248.9142 C0            1 RES     
    8069 C0         328.8253  -366.9087  -249.9769 C0            1 RES     
    8070 C0         330.2109  -366.3843  -250.4062 C0            1 RES     
    8071 C0         330.1913  -365.3355  -251.5386 C0            1 RES     
    8072 C0         330.0569  -365.8537  -252.9923 C0            1 RES     
    8073 C0         328.7347  -366.5083  -253.4212 C0            1 RES     
    8074 C0         327.5265  -365.5970  -253.2146 C0            1 RES     
    8075 H6         334.7567  -365.6240  -241.2146 H6            1 RES     
    8076 H6         334.4279  -366.2986  -239.5924 H6            1 RES     
    8077 H6         332.1370  -365.9413  -239.6510 H6            1 RES     
    8078 H6         332.1268  -365.0054  -241.1609 H6            1 RES     
    8079 H6         332.8311  -367.9937  -240.9169 H6            1 RES     
    8080 H6         331.2348  -367.2832  -241.2988 H6            1 RES     
    8081 H6         333.6836  -367.1743  -243.1559 H6            1 RES     
    8082 H6         332.1412  -368.0811  -243.3088 H6            1 RES     
    8083 H6         330.9688  -365.6790  -243.2382 H6            1 RES     
    8084 H6         332.6469  -365.0844  -243.4651 H6            1 RES     
    8085 H6         332.7800  -366.4617  -245.6178 H6            1 RES     
    8086 H6         331.6657  -365.0486  -245.5849 H6            1 RES     
    8087 H6         330.6942  -367.9356  -245.1581 H6            1 RES     
    8088 H6         329.7113  -366.4214  -245.1148 H6            1 RES     
    8089 H6         330.3991  -365.9269  -247.4685 H6            1 RES     
    8090 H6         331.2730  -367.5251  -247.5271 H6            1 RES     
    8091 H6         329.0313  -368.5988  -246.8675 H6            1 RES     
    8092 H6         328.2549  -366.9941  -247.0890 H6            1 RES     
    8093 H6         329.6086  -368.7983  -249.2257 H6            1 RES     
    8094 H6         327.8691  -368.5115  -248.9287 H6            1 RES     
    8095 H6         328.1600  -366.0825  -249.6445 H6            1 RES     
    8096 H6         328.3560  -367.3757  -250.8518 H6            1 RES     
    8097 H6         330.6614  -365.8744  -249.5430 H6            1 RES     
    8098 H6         330.8855  -367.2195  -250.6935 H6            1 RES     
    8099 H6         331.1945  -364.8537  -251.5174 H6            1 RES     
    8100 H6         329.4528  -364.5367  -251.3150 H6            1 RES     
    8101 H6         330.2139  -364.9766  -253.6585 H6            1 RES     
    8102 H6         330.8819  -366.5714  -253.1942 H6            1 RES     
    8103 H6         328.8097  -366.7445  -254.5051 H6            1 RES     
    8104 H6         328.5855  -367.4771  -252.9137 H6            1 RES     
    8105 H6         327.6609  -364.6479  -253.7757 H6            1 RES     
    8106 H6         326.6127  -366.1049  -253.5883 H6            1 RES     
    8107 H6         327.3817  -365.3690  -252.1390 H6            1 RES     
    8108 C0         346.7576  -366.9709  -238.0490 C0            1 RES     
    8109 C1         345.4755  -366.5023  -237.3300 C1            1 RES     
    8110 C1         345.5191  -366.6290  -235.8586 C1            1 RES     
    8111 S2         343.8380  -367.0269  -235.3554 S2            1 RES     
    8112 C1         343.3796  -365.9794  -236.7542 C1            1 RES     
    8113 C1         344.3244  -365.9997  -237.7632 C1            1 RES     
    8114 C1         346.6344  -367.5551  -235.7300 C1            1 RES     
    8115 C1         347.3536  -367.7423  -236.8747 C1            1 RES     
    8116 C1         348.4686  -368.5783  -236.6842 C1            1 RES     
    8117 C1         348.5911  -368.9814  -235.3328 C1            1 RES     
    8118 S2         347.3280  -368.3018  -234.4232 S2            1 RES     
    8119 H3         344.0768  -365.7527  -238.7825 H3            1 RES     
    8120 H3         349.1562  -368.8612  -237.4715 H3            1 RES     
    8121 N4         350.3155  -370.7236  -235.5737 N4            1 RES     
    8122 C1         351.2363  -371.6165  -235.1033 C1            1 RES     
    8123 C1         351.5339  -371.6882  -233.7370 C1            1 RES     
    8124 C1         350.8718  -370.8268  -232.8713 C1            1 RES     
    8125 N4         351.0929  -370.7921  -231.5344 N4            1 RES     
    8126 S2         350.0617  -369.6010  -231.0390 S2            1 RES     
    8127 N4         349.3240  -369.1168  -232.4356 N4            1 RES     
    8128 C1         349.9024  -369.9153  -233.3713 C1            1 RES     
    8129 C1         349.6250  -369.8749  -234.7547 C1            1 RES     
    8130 H5         351.7387  -372.2824  -235.7930 H5            1 RES     
    8131 C0         347.6790  -365.7490  -238.3686 C0            1 RES     
    8132 C0         347.0762  -364.7723  -239.3832 C0            1 RES     
    8133 C0         347.8612  -363.4798  -239.6275 C0            1 RES     
    8134 C0         348.0264  -362.5566  -238.4098 C0            1 RES     
    8135 C0         346.7168  -362.3364  -237.6250 C0            1 RES     
    8136 C0         346.8398  -361.1985  -236.6044 C0            1 RES     
    8137 C0         346.6952  -359.8317  -237.2917 C0            1 RES     
    8138 C0         346.8793  -358.6803  -236.3023 C0            1 RES     
    8139 C0         346.5124  -357.3471  -236.9613 C0            1 RES     
    8140 C0         346.9227  -356.0707  -236.1999 C0            1 RES     
    8141 C0         346.3949  -355.8755  -234.7644 C0            1 RES     
    8142 C0         347.1975  -356.6515  -233.6961 C0            1 RES     
    8143 C0         346.7416  -356.4264  -232.2407 C0            1 RES     
    8144 C0         347.2342  -355.1432  -231.5292 C0            1 RES     
    8145 C0         346.7269  -353.7847  -232.0354 C0            1 RES     
    8146 C0         345.2027  -353.6853  -232.0409 C0            1 RES     
    8147 H6         347.8478  -365.1986  -237.4188 H6            1 RES     
    8148 H6         348.6703  -366.0969  -238.7326 H6            1 RES     
    8149 H6         347.0273  -365.2762  -240.3472 H6            1 RES     
    8150 H6         346.0518  -364.4867  -239.0807 H6            1 RES     
    8151 H6         348.8632  -363.7056  -240.0525 H6            1 RES     
    8152 H6         347.2892  -362.9156  -240.3981 H6            1 RES     
    8153 H6         348.7826  -362.9729  -237.7094 H6            1 RES     
    8154 H6         348.4275  -361.5999  -238.8032 H6            1 RES     
    8155 H6         345.8587  -362.1248  -238.3000 H6            1 RES     
    8156 H6         346.4959  -363.2779  -237.0779 H6            1 RES     
    8157 H6         347.7965  -361.2918  -236.0442 H6            1 RES     
    8158 H6         346.0036  -361.2841  -235.8761 H6            1 RES     
    8159 H6         347.4367  -359.7089  -238.1081 H6            1 RES     
    8160 H6         345.6744  -359.7821  -237.7334 H6            1 RES     
    8161 H6         346.1985  -358.8441  -235.4425 H6            1 RES     
    8162 H6         347.9402  -358.6751  -235.9694 H6            1 RES     
    8163 H6         347.0160  -357.2829  -237.9512 H6            1 RES     
    8164 H6         345.4138  -357.3403  -237.1404 H6            1 RES     
    8165 H6         348.0285  -355.9604  -236.1965 H6            1 RES     
    8166 H6         346.5150  -355.2367  -236.8141 H6            1 RES     
    8167 H6         345.3085  -356.1052  -234.7150 H6            1 RES     
    8168 H6         346.5158  -354.8039  -234.5654 H6            1 RES     
    8169 H6         347.0631  -357.7271  -233.8766 H6            1 RES     
    8170 H6         348.2850  -356.4362  -233.7772 H6            1 RES     
    8171 H6         347.1979  -357.2535  -231.6514 H6            1 RES     
    8172 H6         345.6412  -356.5494  -232.1579 H6            1 RES     
    8173 H6         346.9226  -355.2310  -230.4650 H6            1 RES     
    8174 H6         348.3460  -355.1276  -231.5468 H6            1 RES     
    8175 H6         347.1253  -352.9998  -231.3567 H6            1 RES     
    8176 H6         347.1380  -353.5532  -233.0331 H6            1 RES     
    8177 H6         344.8027  -353.8647  -231.0206 H6            1 RES     
    8178 H6         344.9003  -352.6689  -232.3695 H6            1 RES     
    8179 H6         344.7594  -354.4216  -232.7416 H6            1 RES     
    8180 C0         346.5403  -367.9531  -239.2733 C0            1 RES     
    8181 C0         345.3644  -367.5959  -240.2153 C0            1 RES     
    8182 C0         345.2173  -368.4107  -241.5186 C0            1 RES     
    8183 C0         346.1702  -368.0694  -242.6909 C0            1 RES     
    8184 C0         346.2159  -366.5582  -242.9991 C0            1 RES     
    8185 C0         346.8049  -366.1833  -244.3667 C0            1 RES     
    8186 C0         345.7736  -366.3604  -245.4933 C0            1 RES     
    8187 C0         346.3288  -365.8964  -246.8480 C0            1 RES     
    8188 C0         345.2238  -365.9067  -247.9126 C0            1 RES     
    8189 C0         345.6692  -365.7300  -249.3804 C0            1 RES     
    8190 C0         346.3556  -364.4125  -249.7994 C0            1 RES     
    8191 C0         347.8495  -364.3287  -249.4252 C0            1 RES     
    8192 C0         348.5783  -363.0619  -249.9220 C0            1 RES     
    8193 C0         349.0573  -363.0426  -251.3951 C0            1 RES     
    8194 C0         348.0025  -363.0118  -252.5118 C0            1 RES     
    8195 C0         347.0464  -361.8266  -252.3930 C0            1 RES     
    8196 H6         347.4965  -368.0229  -239.8358 H6            1 RES     
    8197 H6         346.3079  -368.9762  -238.9013 H6            1 RES     
    8198 H6         344.4435  -367.8071  -239.6334 H6            1 RES     
    8199 H6         345.3388  -366.5323  -240.4872 H6            1 RES     
    8200 H6         345.2437  -369.5005  -241.3033 H6            1 RES     
    8201 H6         344.1973  -368.1777  -241.8987 H6            1 RES     
    8202 H6         347.2037  -368.4288  -242.4954 H6            1 RES     
    8203 H6         345.7793  -368.6216  -243.5717 H6            1 RES     
    8204 H6         345.2090  -366.0928  -242.9163 H6            1 RES     
    8205 H6         346.8705  -366.1135  -242.2379 H6            1 RES     
    8206 H6         347.7455  -366.7447  -244.5583 H6            1 RES     
    8207 H6         347.0506  -365.0996  -244.3348 H6            1 RES     
    8208 H6         345.4525  -367.4204  -245.5680 H6            1 RES     
    8209 H6         344.8847  -365.7370  -245.2448 H6            1 RES     
    8210 H6         346.6953  -364.8584  -246.7304 H6            1 RES     
    8211 H6         347.1607  -366.5717  -247.1420 H6            1 RES     
    8212 H6         344.7164  -366.8958  -247.8724 H6            1 RES     
    8213 H6         344.4697  -365.1298  -247.6543 H6            1 RES     
    8214 H6         346.2994  -366.5885  -249.6983 H6            1 RES     
    8215 H6         344.7234  -365.7876  -249.9649 H6            1 RES     
    8216 H6         345.7876  -363.5378  -249.4146 H6            1 RES     
    8217 H6         346.2810  -364.3961  -250.8940 H6            1 RES     
    8218 H6         347.9220  -364.2970  -248.3290 H6            1 RES     
    8219 H6         348.4021  -365.2281  -249.7732 H6            1 RES     
    8220 H6         349.5212  -363.0089  -249.3327 H6            1 RES     
    8221 H6         347.9944  -362.1526  -249.6656 H6            1 RES     
    8222 H6         349.6810  -362.1291  -251.5147 H6            1 RES     
    8223 H6         349.7207  -363.9182  -251.5673 H6            1 RES     
    8224 H6         348.5391  -362.9287  -253.4822 H6            1 RES     
    8225 H6         347.4436  -363.9623  -252.5597 H6            1 RES     
    8226 H6         347.6145  -360.8723  -252.4032 H6            1 RES     
    8227 H6         346.3435  -361.8316  -253.2524 H6            1 RES     
    8228 H6         346.4525  -361.8890  -251.4584 H6            1 RES     
    8229 C0         355.9992  -374.5256  -233.4113 C0            1 RES     
    8230 C1         354.6486  -373.8553  -233.0843 C1            1 RES     
    8231 C1         353.9579  -374.4163  -231.9049 C1            1 RES     
    8232 S2         352.2000  -374.3022  -232.2718 S2            1 RES     
    8233 C1         352.6801  -372.7978  -233.1496 C1            1 RES     
    8234 C1         353.9676  -372.8636  -233.6483 C1            1 RES     
    8235 C1         354.6713  -375.6793  -231.7865 C1            1 RES     
    8236 C1         355.7981  -375.7702  -232.5512 C1            1 RES     
    8237 C1         356.4993  -376.9717  -232.3434 C1            1 RES     
    8238 C1         355.8796  -377.7702  -231.3524 C1            1 RES     
    8239 S2         354.4953  -376.9767  -230.7707 S2            1 RES     
    8240 H3         354.2910  -372.2550  -234.4768 H3            1 RES     
    8241 H3         357.4095  -377.2408  -232.8647 H3            1 RES     
    8242 N4         357.1325  -379.8676  -231.6658 N4            1 RES     
    8243 C1         357.5225  -381.1308  -231.3214 C1            1 RES     
    8244 C1         357.1102  -381.7051  -230.1129 C1            1 RES     
    8245 C1         356.2969  -380.9574  -229.2706 C1            1 RES     
    8246 N4         355.8539  -381.4011  -228.0688 N4            1 RES     
    8247 S2         354.9657  -380.1185  -227.5269 S2            1 RES     
    8248 N4         355.0958  -379.0103  -228.7453 N4            1 RES     
    8249 C1         355.8831  -379.6513  -229.6491 C1            1 RES     
    8250 C1         356.3148  -379.1071  -230.8779 C1            1 RES     
    8251 H5         358.1529  -381.6993  -231.9930 H5            1 RES     
    8252 C0         357.1790  -373.6887  -232.8181 C0            1 RES     
    8253 C0         357.3380  -372.3073  -233.4610 C0            1 RES     
    8254 C0         358.3787  -371.3804  -232.8252 C0            1 RES     
    8255 C0         358.1176  -370.9838  -231.3633 C0            1 RES     
    8256 C0         356.6637  -370.5422  -231.0979 C0            1 RES     
    8257 C0         356.5026  -369.8827  -229.7229 C0            1 RES     
    8258 C0         356.9734  -368.4203  -229.7612 C0            1 RES     
    8259 C0         356.8821  -367.7619  -228.3840 C0            1 RES     
    8260 C0         357.1425  -366.2564  -228.4944 C0            1 RES     
    8261 C0         357.3783  -365.5031  -227.1700 C0            1 RES     
    8262 C0         356.2780  -365.5606  -226.0914 C0            1 RES     
    8263 C0         356.3036  -366.8535  -225.2456 C0            1 RES     
    8264 C0         355.2611  -366.9167  -224.1116 C0            1 RES     
    8265 C0         355.5927  -366.1727  -222.7956 C0            1 RES     
    8266 C0         355.6646  -364.6387  -222.8199 C0            1 RES     
    8267 C0         354.3812  -363.9928  -223.3383 C0            1 RES     
    8268 H6         356.9766  -373.5438  -231.7357 H6            1 RES     
    8269 H6         358.1344  -374.2507  -232.9060 H6            1 RES     
    8270 H6         357.6589  -372.4507  -234.4915 H6            1 RES     
    8271 H6         356.3715  -371.7701  -233.4626 H6            1 RES     
    8272 H6         359.3961  -371.8205  -232.9075 H6            1 RES     
    8273 H6         358.3670  -370.4464  -233.4308 H6            1 RES     
    8274 H6         358.3494  -371.8337  -230.6854 H6            1 RES     
    8275 H6         358.8355  -370.1694  -231.1342 H6            1 RES     
    8276 H6         356.2927  -369.8434  -231.8793 H6            1 RES     
    8277 H6         356.0297  -371.4542  -231.1275 H6            1 RES     
    8278 H6         357.0360  -370.4792  -228.9500 H6            1 RES     
    8279 H6         355.4215  -369.8674  -229.4619 H6            1 RES     
    8280 H6         358.0227  -368.3423  -230.1138 H6            1 RES     
    8281 H6         356.3199  -367.8738  -230.4782 H6            1 RES     
    8282 H6         355.8562  -367.9112  -227.9908 H6            1 RES     
    8283 H6         357.6326  -368.2427  -227.7191 H6            1 RES     
    8284 H6         358.0596  -366.0922  -229.1024 H6            1 RES     
    8285 H6         356.2885  -365.7967  -229.0407 H6            1 RES     
    8286 H6         358.3453  -365.8104  -226.7165 H6            1 RES     
    8287 H6         357.4852  -364.4368  -227.4711 H6            1 RES     
    8288 H6         355.2792  -365.3814  -226.5450 H6            1 RES     
    8289 H6         356.4950  -364.7169  -225.4254 H6            1 RES     
    8290 H6         356.0654  -367.7012  -225.9030 H6            1 RES     
    8291 H6         357.3157  -367.0364  -224.8240 H6            1 RES     
    8292 H6         355.2092  -367.9873  -223.8104 H6            1 RES     
    8293 H6         354.2551  -366.6481  -224.4972 H6            1 RES     
    8294 H6         354.7999  -366.4498  -222.0662 H6            1 RES     
    8295 H6         356.5563  -366.5597  -222.3977 H6            1 RES     
    8296 H6         355.8341  -364.2907  -221.7780 H6            1 RES     
    8297 H6         356.5388  -364.2905  -223.3967 H6            1 RES     
    8298 H6         353.5158  -364.3056  -222.7165 H6            1 RES     
    8299 H6         354.4771  -362.8880  -223.2869 H6            1 RES     
    8300 H6         354.1932  -364.2750  -224.3941 H6            1 RES     
    8301 C0         356.2073  -374.9533  -234.9228 C0            1 RES     
    8302 C0         355.7200  -373.9311  -235.9790 C0            1 RES     
    8303 C0         356.0585  -374.2134  -237.4589 C0            1 RES     
    8304 C0         357.5016  -373.9147  -237.9355 C0            1 RES     
    8305 C0         357.9822  -372.5060  -237.5291 C0            1 RES     
    8306 C0         359.2135  -371.9873  -238.2859 C0            1 RES     
    8307 C0         358.8344  -371.4355  -239.6701 C0            1 RES     
    8308 C0         360.0479  -370.8296  -240.3905 C0            1 RES     
    8309 C0         359.6085  -370.1218  -241.6791 C0            1 RES     
    8310 C0         360.7261  -369.6963  -242.6558 C0            1 RES     
    8311 C0         361.7707  -368.6598  -242.1899 C0            1 RES     
    8312 C0         362.8876  -369.2414  -241.2992 C0            1 RES     
    8313 C0         363.9959  -368.2423  -240.9038 C0            1 RES     
    8314 C0         365.1142  -367.9665  -241.9397 C0            1 RES     
    8315 C0         364.7507  -367.2254  -243.2356 C0            1 RES     
    8316 C0         364.1057  -365.8646  -242.9806 C0            1 RES     
    8317 H6         357.2815  -375.1984  -235.0691 H6            1 RES     
    8318 H6         355.6313  -375.8816  -235.1363 H6            1 RES     
    8319 H6         354.6120  -373.9528  -235.9237 H6            1 RES     
    8320 H6         356.0352  -372.9024  -235.7596 H6            1 RES     
    8321 H6         355.7661  -375.2489  -237.7361 H6            1 RES     
    8322 H6         355.4121  -373.5234  -238.0463 H6            1 RES     
    8323 H6         358.2233  -374.6670  -237.5499 H6            1 RES     
    8324 H6         357.4804  -374.0004  -239.0426 H6            1 RES     
    8325 H6         357.1708  -371.7518  -237.6295 H6            1 RES     
    8326 H6         358.2655  -372.5763  -236.4705 H6            1 RES     
    8327 H6         360.0014  -372.7701  -238.3407 H6            1 RES     
    8328 H6         359.6196  -371.1292  -237.7074 H6            1 RES     
    8329 H6         358.3887  -372.2325  -240.3014 H6            1 RES     
    8330 H6         358.0755  -370.6335  -239.5228 H6            1 RES     
    8331 H6         360.5076  -370.0812  -239.7166 H6            1 RES     
    8332 H6         360.7695  -371.6431  -240.6182 H6            1 RES     
    8333 H6         358.9621  -370.8220  -242.2530 H6            1 RES     
    8334 H6         358.9903  -369.2364  -241.4091 H6            1 RES     
    8335 H6         361.2507  -370.5909  -243.0551 H6            1 RES     
    8336 H6         360.1842  -369.2298  -243.5091 H6            1 RES     
    8337 H6         361.2706  -367.7932  -241.7055 H6            1 RES     
    8338 H6         362.2333  -368.2958  -243.1158 H6            1 RES     
    8339 H6         362.4318  -369.5626  -240.3521 H6            1 RES     
    8340 H6         363.3522  -370.1350  -241.7693 H6            1 RES     
    8341 H6         364.5320  -368.7132  -240.0495 H6            1 RES     
    8342 H6         363.5502  -367.3016  -240.5168 H6            1 RES     
    8343 H6         365.8834  -367.3521  -241.4214 H6            1 RES     
    8344 H6         365.5943  -368.9313  -242.2138 H6            1 RES     
    8345 H6         365.6903  -367.0622  -243.8073 H6            1 RES     
    8346 H6         364.1098  -367.8468  -243.8848 H6            1 RES     
    8347 H6         364.7829  -365.2261  -242.3745 H6            1 RES     
    8348 H6         363.9136  -365.3594  -243.9504 H6            1 RES     
    8349 H6         363.1380  -365.9780  -242.4506 H6            1 RES     
    8350 C0         360.2266  -385.9370  -229.4244 C0            1 RES     
    8351 C1         359.0440  -384.9483  -229.3607 C1            1 RES     
    8352 C1         357.7793  -385.5388  -228.8762 C1            1 RES     
    8353 S2         356.4714  -384.6882  -229.7726 S2            1 RES     
    8354 C1         357.5951  -383.2764  -229.6820 C1            1 RES     
    8355 C1         358.9235  -383.6577  -229.6528 C1            1 RES     
    8356 C1         358.0879  -386.9495  -229.0568 C1            1 RES     
    8357 C1         359.4009  -387.2161  -229.3171 C1            1 RES     
    8358 C1         359.6682  -388.5944  -229.4019 C1            1 RES     
    8359 C1         358.5083  -389.3652  -229.1487 C1            1 RES     
    8360 S2         357.1990  -388.3302  -228.8340 S2            1 RES     
    8361 H3         359.7150  -382.9944  -229.9607 H3            1 RES     
    8362 H3         360.6446  -389.0109  -229.6159 H3            1 RES     
    8363 N4         359.3229  -391.5827  -229.8457 N4            1 RES     
    8364 C1         359.2464  -392.9422  -229.9574 C1            1 RES     
    8365 C1         358.2037  -393.6547  -229.3529 C1            1 RES     
    8366 C1         357.2500  -392.9454  -228.6336 C1            1 RES     
    8367 N4         356.2096  -393.5294  -227.9901 N4            1 RES     
    8368 S2         355.4395  -392.2318  -227.3187 S2            1 RES     
    8369 N4         356.3491  -390.9419  -227.8065 N4            1 RES     
    8370 C1         357.3308  -391.5293  -228.5406 C1            1 RES     
    8371 C1         358.3939  -390.8445  -229.1677 C1            1 RES     
    8372 H5         359.9967  -393.4767  -230.5256 H5            1 RES     
    8373 C0         361.1163  -385.8032  -228.1459 C0            1 RES     
    8374 C0         361.8288  -384.4519  -228.0304 C0            1 RES     
    8375 C0         362.5966  -384.2004  -226.7290 C0            1 RES     
    8376 C0         361.7513  -384.1852  -225.4454 C0            1 RES     
    8377 C0         360.4651  -383.3426  -225.5679 C0            1 RES     
    8378 C0         359.7981  -383.1061  -224.2075 C0            1 RES     
    8379 C0         360.5043  -381.9751  -223.4434 C0            1 RES     
    8380 C0         359.8959  -381.7657  -222.0561 C0            1 RES     
    8381 C0         360.4646  -380.4986  -221.4101 C0            1 RES     
    8382 C0         360.1801  -380.3093  -219.9067 C0            1 RES     
    8383 C0         358.7109  -380.2759  -219.4403 C0            1 RES     
    8384 C0         358.0767  -381.6761  -219.2827 C0            1 RES     
    8385 C0         356.6294  -381.6853  -218.7517 C0            1 RES     
    8386 C0         356.4290  -381.5366  -217.2242 C0            1 RES     
    8387 C0         356.8009  -380.2009  -216.5635 C0            1 RES     
    8388 C0         356.0752  -379.0093  -217.1853 C0            1 RES     
    8389 H6         360.4537  -385.9201  -227.2623 H6            1 RES     
    8390 H6         361.8672  -386.6225  -228.1097 H6            1 RES     
    8391 H6         362.5684  -384.3924  -228.8272 H6            1 RES     
    8392 H6         361.1064  -383.6242  -228.1552 H6            1 RES     
    8393 H6         363.4216  -384.9363  -226.6136 H6            1 RES     
    8394 H6         363.0579  -383.1930  -226.8359 H6            1 RES     
    8395 H6         361.4602  -385.2201  -225.1624 H6            1 RES     
    8396 H6         362.4151  -383.7955  -224.6463 H6            1 RES     
    8397 H6         360.6569  -382.3599  -226.0518 H6            1 RES     
    8398 H6         359.7587  -383.9079  -226.2129 H6            1 RES     
    8399 H6         359.7693  -384.0552  -223.6278 H6            1 RES     
    8400 H6         358.7504  -382.7748  -224.3796 H6            1 RES     
    8401 H6         361.5867  -382.1854  -223.3190 H6            1 RES     
    8402 H6         360.3937  -381.0428  -224.0420 H6            1 RES     
    8403 H6         358.8001  -381.6388  -222.1689 H6            1 RES     
    8404 H6         360.1272  -382.6601  -221.4372 H6            1 RES     
    8405 H6         361.5728  -380.5094  -221.5084 H6            1 RES     
    8406 H6         360.0839  -379.6200  -221.9776 H6            1 RES     
    8407 H6         360.7316  -381.0672  -219.3096 H6            1 RES     
    8408 H6         360.6231  -379.3179  -219.6619 H6            1 RES     
    8409 H6         358.1072  -379.6195  -220.1037 H6            1 RES     
    8410 H6         358.7425  -379.8060  -218.4499 H6            1 RES     
    8411 H6         358.0220  -382.1444  -220.2753 H6            1 RES     
    8412 H6         358.7064  -382.3314  -218.6424 H6            1 RES     
    8413 H6         356.2325  -382.7005  -218.9781 H6            1 RES     
    8414 H6         356.0045  -380.9672  -219.3232 H6            1 RES     
    8415 H6         355.3474  -381.7067  -217.0282 H6            1 RES     
    8416 H6         356.9889  -382.3474  -216.7084 H6            1 RES     
    8417 H6         356.5156  -380.2622  -215.4910 H6            1 RES     
    8418 H6         357.8931  -380.0427  -216.5733 H6            1 RES     
    8419 H6         354.9759  -379.1527  -217.1201 H6            1 RES     
    8420 H6         356.3479  -378.0837  -216.6363 H6            1 RES     
    8421 H6         356.3641  -378.8791  -218.2480 H6            1 RES     
    8422 C0         361.0442  -385.9458  -230.7817 C0            1 RES     
    8423 C0         361.3308  -384.5542  -231.3974 C0            1 RES     
    8424 C0         362.2732  -384.4914  -232.6189 C0            1 RES     
    8425 C0         363.7952  -384.6140  -232.3592 C0            1 RES     
    8426 C0         364.2868  -383.6650  -231.2464 C0            1 RES     
    8427 C0         365.8041  -383.4335  -231.2020 C0            1 RES     
    8428 C0         366.2486  -382.4003  -232.2503 C0            1 RES     
    8429 C0         367.7503  -382.0960  -232.1451 C0            1 RES     
    8430 C0         368.1278  -380.9312  -233.0698 C0            1 RES     
    8431 C0         369.6348  -380.6758  -233.2885 C0            1 RES     
    8432 C0         370.5084  -380.2789  -232.0795 C0            1 RES     
    8433 C0         370.9261  -381.4626  -231.1831 C0            1 RES     
    8434 C0         371.8806  -381.1012  -230.0251 C0            1 RES     
    8435 C0         373.3874  -380.9608  -230.3565 C0            1 RES     
    8436 C0         373.8399  -379.7921  -231.2453 C0            1 RES     
    8437 C0         373.4304  -378.4298  -230.6890 C0            1 RES     
    8438 H6         361.9865  -386.5113  -230.6152 H6            1 RES     
    8439 H6         360.4722  -386.4925  -231.5647 H6            1 RES     
    8440 H6         360.3511  -384.1851  -231.7653 H6            1 RES     
    8441 H6         361.6961  -383.8252  -230.6618 H6            1 RES     
    8442 H6         361.9538  -385.2175  -233.3968 H6            1 RES     
    8443 H6         362.1347  -383.4730  -233.0465 H6            1 RES     
    8444 H6         364.0826  -385.6555  -232.0978 H6            1 RES     
    8445 H6         364.2897  -384.3561  -233.3197 H6            1 RES     
    8446 H6         363.7866  -382.6731  -231.3038 H6            1 RES     
    8447 H6         364.0096  -384.1421  -230.2971 H6            1 RES     
    8448 H6         366.3528  -384.3965  -231.2938 H6            1 RES     
    8449 H6         366.0424  -382.9943  -230.2090 H6            1 RES     
    8450 H6         366.0136  -382.7557  -233.2755 H6            1 RES     
    8451 H6         365.6844  -381.4583  -232.0632 H6            1 RES     
    8452 H6         367.9675  -381.8013  -231.1003 H6            1 RES     
    8453 H6         368.3189  -383.0110  -232.4173 H6            1 RES     
    8454 H6         367.7123  -381.1447  -234.0793 H6            1 RES     
    8455 H6         367.6416  -380.0030  -232.6941 H6            1 RES     
    8456 H6         370.1008  -381.5399  -233.8093 H6            1 RES     
    8457 H6         369.6695  -379.8148  -233.9934 H6            1 RES     
    8458 H6         370.0172  -379.4735  -231.4915 H6            1 RES     
    8459 H6         371.4182  -379.8537  -232.5216 H6            1 RES     
    8460 H6         370.0203  -381.8586  -230.7027 H6            1 RES     
    8461 H6         371.3747  -382.2830  -231.7838 H6            1 RES     
    8462 H6         371.8397  -381.9643  -229.3234 H6            1 RES     
    8463 H6         371.4971  -380.2215  -229.4661 H6            1 RES     
    8464 H6         373.9180  -380.8516  -229.3847 H6            1 RES     
    8465 H6         373.7418  -381.9075  -230.8197 H6            1 RES     
    8466 H6         374.9497  -379.8226  -231.3058 H6            1 RES     
    8467 H6         373.4805  -379.9158  -232.2815 H6            1 RES     
    8468 H6         373.8450  -378.2916  -229.6679 H6            1 RES     
    8469 H6         373.8279  -377.6280  -231.3461 H6            1 RES     
    8470 H6         372.3262  -378.3328  -230.6520 H6            1 RES     
    8471 C0         359.7199  -398.7328  -229.4515 C0            1 RES     
    8472 C1         358.8690  -397.4465  -229.4085 C1            1 RES     
    8473 C1         357.4392  -397.6490  -229.7211 C1            1 RES     
    8474 S2         356.9132  -396.1564  -230.5773 S2            1 RES     
    8475 C1         358.1071  -395.3464  -229.4898 C1            1 RES     
    8476 C1         359.1566  -396.1767  -229.1436 C1            1 RES     
    8477 C1         357.5153  -398.9545  -230.3598 C1            1 RES     
    8478 C1         358.7124  -399.5926  -230.2098 C1            1 RES     
    8479 C1         358.7136  -400.8826  -230.7705 C1            1 RES     
    8480 C1         357.4490  -401.2144  -231.3133 C1            1 RES     
    8481 S2         356.3786  -399.9150  -231.0890 S2            1 RES     
    8482 H3         360.1109  -395.7891  -228.8265 H3            1 RES     
    8483 H3         359.5711  -401.5439  -230.7690 H3            1 RES     
    8484 N4         358.0484  -403.2651  -232.5389 N4            1 RES     
    8485 C1         357.7716  -404.4050  -233.2393 C1            1 RES     
    8486 C1         356.4508  -404.8316  -233.4236 C1            1 RES     
    8487 C1         355.4282  -404.0687  -232.8738 C1            1 RES     
    8488 N4         354.1158  -404.3941  -232.9702 N4            1 RES     
    8489 S2         353.3878  -403.1646  -232.1420 S2            1 RES     
    8490 N4         354.6512  -402.2139  -231.6633 N4            1 RES     
    8491 C1         355.7286  -402.8749  -232.1631 C1            1 RES     
    8492 C1         357.0723  -402.4736  -232.0019 C1            1 RES     
    8493 H5         358.5818  -404.9837  -233.6638 H5            1 RES     
    8494 C0         359.8967  -399.3158  -228.0118 C0            1 RES     
    8495 C0         360.7147  -398.4164  -227.0796 C0            1 RES     
    8496 C0         360.7990  -398.8577  -225.6152 C0            1 RES     
    8497 C0         359.4643  -398.9136  -224.8550 C0            1 RES     
    8498 C0         358.5853  -397.6638  -225.0662 C0            1 RES     
    8499 C0         357.4097  -397.6119  -224.0830 C0            1 RES     
    8500 C0         357.8694  -397.0958  -222.7104 C0            1 RES     
    8501 C0         356.7258  -397.0971  -221.6952 C0            1 RES     
    8502 C0         357.1507  -396.3759  -220.4123 C0            1 RES     
    8503 C0         356.2251  -396.5474  -219.1913 C0            1 RES     
    8504 C0         354.7503  -396.1189  -219.3273 C0            1 RES     
    8505 C0         353.8593  -397.1704  -220.0258 C0            1 RES     
    8506 C0         352.3640  -396.8065  -220.1185 C0            1 RES     
    8507 C0         351.4911  -397.0517  -218.8642 C0            1 RES     
    8508 C0         351.7537  -396.2023  -217.6119 C0            1 RES     
    8509 C0         351.6614  -394.7019  -217.8828 C0            1 RES     
    8510 H6         358.8840  -399.4372  -227.5722 H6            1 RES     
    8511 H6         360.3630  -400.3241  -228.0574 H6            1 RES     
    8512 H6         361.7407  -398.3992  -227.4436 H6            1 RES     
    8513 H6         360.3168  -397.3849  -227.0934 H6            1 RES     
    8514 H6         361.3072  -399.8428  -225.5326 H6            1 RES     
    8515 H6         361.4414  -398.1049  -225.1054 H6            1 RES     
    8516 H6         358.8784  -399.8047  -225.1687 H6            1 RES     
    8517 H6         359.7267  -399.0470  -223.7852 H6            1 RES     
    8518 H6         359.1722  -396.7234  -224.9774 H6            1 RES     
    8519 H6         358.1787  -397.7153  -226.0990 H6            1 RES     
    8520 H6         356.9232  -398.6104  -224.0188 H6            1 RES     
    8521 H6         356.6592  -396.8861  -224.4664 H6            1 RES     
    8522 H6         358.6961  -397.7133  -222.3021 H6            1 RES     
    8523 H6         358.2424  -396.0558  -222.8483 H6            1 RES     
    8524 H6         355.8660  -396.5518  -222.1342 H6            1 RES     
    8525 H6         356.4540  -398.1537  -221.4802 H6            1 RES     
    8526 H6         358.1448  -396.7610  -220.0938 H6            1 RES     
    8527 H6         357.2670  -395.2938  -220.6460 H6            1 RES     
    8528 H6         356.2645  -397.5939  -218.8194 H6            1 RES     
    8529 H6         356.6805  -395.9056  -218.4041 H6            1 RES     
    8530 H6         354.6782  -395.1234  -219.8165 H6            1 RES     
    8531 H6         354.3954  -396.0070  -218.2958 H6            1 RES     
    8532 H6         354.1958  -397.2718  -221.0669 H6            1 RES     
    8533 H6         353.9649  -398.1675  -219.5458 H6            1 RES     
    8534 H6         351.9348  -397.4916  -220.8839 H6            1 RES     
    8535 H6         352.2418  -395.7759  -220.5132 H6            1 RES     
    8536 H6         350.4379  -396.8647  -219.1693 H6            1 RES     
    8537 H6         351.5662  -398.1240  -218.5790 H6            1 RES     
    8538 H6         350.9847  -396.4680  -216.8546 H6            1 RES     
    8539 H6         352.7246  -396.4584  -217.1538 H6            1 RES     
    8540 H6         350.6608  -394.4464  -218.2912 H6            1 RES     
    8541 H6         351.8126  -394.1455  -216.9340 H6            1 RES     
    8542 H6         352.4422  -394.3794  -218.6012 H6            1 RES     
    8543 C0         361.0673  -398.6394  -230.2800 C0            1 RES     
    8544 C0         361.8780  -397.3337  -230.0912 C0            1 RES     
    8545 C0         363.2814  -397.2626  -230.7312 C0            1 RES     
    8546 C0         364.4369  -398.0030  -230.0132 C0            1 RES     
    8547 C0         364.5106  -397.6719  -228.5081 C0            1 RES     
    8548 C0         365.8340  -398.0345  -227.8188 C0            1 RES     
    8549 C0         366.9170  -396.9755  -228.0832 C0            1 RES     
    8550 C0         368.2121  -397.2861  -227.3183 C0            1 RES     
    8551 C0         369.2042  -396.1228  -227.4486 C0            1 RES     
    8552 C0         370.6492  -396.3830  -226.9707 C0            1 RES     
    8553 C0         370.8967  -396.7074  -225.4821 C0            1 RES     
    8554 C0         370.5954  -398.1692  -225.0929 C0            1 RES     
    8555 C0         370.9297  -398.5394  -223.6321 C0            1 RES     
    8556 C0         372.4060  -398.8679  -223.2966 C0            1 RES     
    8557 C0         373.4459  -397.7392  -223.3683 C0            1 RES     
    8558 C0         373.0944  -396.5503  -222.4761 C0            1 RES     
    8559 H6         361.6847  -399.5319  -230.0397 H6            1 RES     
    8560 H6         360.8454  -398.6829  -231.3700 H6            1 RES     
    8561 H6         361.2867  -396.5418  -230.5956 H6            1 RES     
    8562 H6         361.9811  -397.0397  -229.0382 H6            1 RES     
    8563 H6         363.2383  -397.5583  -231.8014 H6            1 RES     
    8564 H6         363.5654  -396.1868  -230.7011 H6            1 RES     
    8565 H6         364.3553  -399.1047  -230.1364 H6            1 RES     
    8566 H6         365.3698  -397.6730  -230.5175 H6            1 RES     
    8567 H6         364.3028  -396.5964  -228.3148 H6            1 RES     
    8568 H6         363.7265  -398.2716  -228.0272 H6            1 RES     
    8569 H6         366.1603  -399.0582  -228.1054 H6            1 RES     
    8570 H6         365.6489  -398.0259  -226.7227 H6            1 RES     
    8571 H6         367.1366  -396.9018  -229.1689 H6            1 RES     
    8572 H6         366.5277  -395.9927  -227.7324 H6            1 RES     
    8573 H6         367.9559  -397.4126  -226.2487 H6            1 RES     
    8574 H6         368.6511  -398.2216  -227.7264 H6            1 RES     
    8575 H6         369.2895  -395.8625  -228.5268 H6            1 RES     
    8576 H6         368.7889  -395.2362  -226.9192 H6            1 RES     
    8577 H6         371.1291  -397.1631  -227.6003 H6            1 RES     
    8578 H6         371.1835  -395.4277  -227.1739 H6            1 RES     
    8579 H6         370.3516  -395.9899  -224.8311 H6            1 RES     
    8580 H6         371.9700  -396.5338  -225.3345 H6            1 RES     
    8581 H6         369.5129  -398.3297  -225.1950 H6            1 RES     
    8582 H6         371.1071  -398.8808  -225.7763 H6            1 RES     
    8583 H6         370.3912  -399.4934  -223.4346 H6            1 RES     
    8584 H6         370.5051  -397.7870  -222.9342 H6            1 RES     
    8585 H6         372.4170  -399.2513  -222.2522 H6            1 RES     
    8586 H6         372.7467  -399.6971  -223.9545 H6            1 RES     
    8587 H6         374.4194  -398.1536  -223.0263 H6            1 RES     
    8588 H6         373.6094  -397.4122  -224.4097 H6            1 RES     
    8589 H6         372.9882  -396.8802  -221.4208 H6            1 RES     
    8590 H6         373.9050  -395.7938  -222.5326 H6            1 RES     
    8591 H6         372.1499  -396.0724  -222.8071 H6            1 RES     
    8592 C0         356.8081  -409.8411  -235.1186 C0            1 RES     
    8593 C1         356.3091  -408.4070  -234.8447 C1            1 RES     
    8594 C1         355.1946  -407.9719  -235.7116 C1            1 RES     
    8595 S2         355.4440  -406.2095  -235.9752 S2            1 RES     
    8596 C1         356.1042  -406.2501  -234.2940 C1            1 RES     
    8597 C1         356.6760  -407.4686  -233.9787 C1            1 RES     
    8598 C1         355.3111  -408.9646  -236.7694 C1            1 RES     
    8599 C1         356.1404  -410.0094  -236.4807 C1            1 RES     
    8600 C1         356.1584  -410.9841  -237.4947 C1            1 RES     
    8601 C1         355.2702  -410.6557  -238.5468 C1            1 RES     
    8602 S2         354.4992  -409.1833  -238.1975 S2            1 RES     
    8603 H3         357.4171  -407.5679  -233.2027 H3            1 RES     
    8604 H3         356.7634  -411.8816  -237.4626 H3            1 RES     
    8605 N4         355.9703  -412.3249  -240.2173 N4            1 RES     
    8606 C1         355.8463  -413.0244  -241.3843 C1            1 RES     
    8607 C1         354.7201  -412.8647  -242.2008 C1            1 RES     
    8608 C1         353.7300  -411.9795  -241.7936 C1            1 RES     
    8609 N4         352.5887  -411.7594  -242.4911 N4            1 RES     
    8610 S2         351.8085  -410.6516  -241.5469 S2            1 RES     
    8611 N4         352.8468  -410.4140  -240.2840 N4            1 RES     
    8612 C1         353.8798  -411.2440  -240.5865 C1            1 RES     
    8613 C1         355.0317  -411.4276  -239.7914 C1            1 RES     
    8614 H5         356.6305  -413.7063  -241.6868 H5            1 RES     
    8615 C0         356.1577  -410.8444  -234.1115 C0            1 RES     
    8616 C0         356.5877  -410.6231  -232.6579 C0            1 RES     
    8617 C0         355.8739  -411.4748  -231.6035 C0            1 RES     
    8618 C0         354.3565  -411.2607  -231.4854 C0            1 RES     
    8619 C0         353.9479  -409.7738  -231.4478 C0            1 RES     
    8620 C0         352.4811  -409.5882  -231.0410 C0            1 RES     
    8621 C0         352.3190  -409.7043  -229.5173 C0            1 RES     
    8622 C0         350.8540  -409.5869  -229.0950 C0            1 RES     
    8623 C0         350.7449  -409.4827  -227.5707 C0            1 RES     
    8624 C0         349.3350  -409.6557  -226.9713 C0            1 RES     
    8625 C0         348.2203  -408.6988  -227.4392 C0            1 RES     
    8626 C0         347.5864  -409.0966  -228.7910 C0            1 RES     
    8627 C0         346.4210  -408.2021  -229.2582 C0            1 RES     
    8628 C0         345.0259  -408.4692  -228.6434 C0            1 RES     
    8629 C0         344.8175  -408.1835  -227.1488 C0            1 RES     
    8630 C0         345.1600  -406.7449  -226.7665 C0            1 RES     
    8631 H6         355.0566  -410.7113  -234.1692 H6            1 RES     
    8632 H6         356.3827  -411.8918  -234.4093 H6            1 RES     
    8633 H6         357.6438  -410.8753  -232.5773 H6            1 RES     
    8634 H6         356.4543  -409.5628  -232.3743 H6            1 RES     
    8635 H6         356.0780  -412.5547  -231.7701 H6            1 RES     
    8636 H6         356.3269  -411.1945  -230.6261 H6            1 RES     
    8637 H6         353.8311  -411.7414  -232.3390 H6            1 RES     
    8638 H6         354.0438  -411.7893  -230.5614 H6            1 RES     
    8639 H6         354.5911  -409.1837  -230.7588 H6            1 RES     
    8640 H6         354.0834  -409.3667  -232.4727 H6            1 RES     
    8641 H6         351.8393  -410.3114  -231.5915 H6            1 RES     
    8642 H6         352.1628  -408.5604  -231.3225 H6            1 RES     
    8643 H6         352.7116  -410.6717  -229.1412 H6            1 RES     
    8644 H6         352.9068  -408.8813  -229.0514 H6            1 RES     
    8645 H6         350.4336  -408.6621  -229.5395 H6            1 RES     
    8646 H6         350.3126  -410.4841  -229.4672 H6            1 RES     
    8647 H6         351.3691  -410.2795  -227.1087 H6            1 RES     
    8648 H6         351.1669  -408.5006  -227.2599 H6            1 RES     
    8649 H6         348.9873  -410.7039  -227.0956 H6            1 RES     
    8650 H6         349.4736  -409.4869  -225.8798 H6            1 RES     
    8651 H6         348.5862  -407.6493  -227.4456 H6            1 RES     
    8652 H6         347.4450  -408.7741  -226.6674 H6            1 RES     
    8653 H6         348.3527  -409.0025  -229.5730 H6            1 RES     
    8654 H6         347.2534  -410.1571  -228.7807 H6            1 RES     
    8655 H6         346.2859  -408.4250  -230.3405 H6            1 RES     
    8656 H6         346.7056  -407.1310  -229.1896 H6            1 RES     
    8657 H6         344.3061  -407.8297  -229.2005 H6            1 RES     
    8658 H6         344.7452  -409.5276  -228.8376 H6            1 RES     
    8659 H6         343.7451  -408.3604  -226.9162 H6            1 RES     
    8660 H6         345.3801  -408.8990  -226.5248 H6            1 RES     
    8661 H6         344.5480  -406.0337  -227.3606 H6            1 RES     
    8662 H6         344.9442  -406.5881  -225.6888 H6            1 RES     
    8663 H6         346.2350  -406.5337  -226.9385 H6            1 RES     
    8664 C0         358.3765  -410.0066  -235.2726 C0            1 RES     
    8665 C0         359.2346  -409.2049  -234.2634 C0            1 RES     
    8666 C0         360.7564  -409.4661  -234.2506 C0            1 RES     
    8667 C0         361.2587  -410.7532  -233.5506 C0            1 RES     
    8668 C0         360.6667  -410.9308  -232.1369 C0            1 RES     
    8669 C0         361.4000  -411.9371  -231.2383 C0            1 RES     
    8670 C0         362.6601  -411.3193  -230.6100 C0            1 RES     
    8671 C0         363.3431  -412.2916  -229.6369 C0            1 RES     
    8672 C0         364.4816  -411.5880  -228.8864 C0            1 RES     
    8673 C0         365.4401  -412.4860  -228.0746 C0            1 RES     
    8674 C0         364.8772  -413.3011  -226.8908 C0            1 RES     
    8675 C0         364.1485  -414.5968  -227.3024 C0            1 RES     
    8676 C0         363.6644  -415.4759  -226.1296 C0            1 RES     
    8677 C0         364.7044  -416.4037  -225.4533 C0            1 RES     
    8678 C0         365.8490  -415.7654  -224.6515 C0            1 RES     
    8679 C0         365.3529  -414.8497  -223.5343 C0            1 RES     
    8680 H6         358.6166  -411.0909  -235.2293 H6            1 RES     
    8681 H6         358.6990  -409.6431  -236.2741 H6            1 RES     
    8682 H6         359.1235  -408.1411  -234.5587 H6            1 RES     
    8683 H6         358.8767  -409.2929  -233.2290 H6            1 RES     
    8684 H6         361.1736  -409.3965  -235.2780 H6            1 RES     
    8685 H6         361.1947  -408.6284  -233.6629 H6            1 RES     
    8686 H6         361.0332  -411.6602  -234.1524 H6            1 RES     
    8687 H6         362.3630  -410.6538  -233.4866 H6            1 RES     
    8688 H6         360.6056  -409.9619  -231.5939 H6            1 RES     
    8689 H6         359.6485  -411.3158  -232.2811 H6            1 RES     
    8690 H6         361.6173  -412.8760  -231.7932 H6            1 RES     
    8691 H6         360.7191  -412.1846  -230.3951 H6            1 RES     
    8692 H6         363.3816  -411.0148  -231.3968 H6            1 RES     
    8693 H6         362.3502  -410.4125  -230.0424 H6            1 RES     
    8694 H6         362.5878  -412.6247  -228.8993 H6            1 RES     
    8695 H6         363.7322  -413.1579  -230.2136 H6            1 RES     
    8696 H6         365.1208  -411.0718  -229.6363 H6            1 RES     
    8697 H6         364.0454  -410.8092  -228.2215 H6            1 RES     
    8698 H6         366.0002  -413.1648  -228.7532 H6            1 RES     
    8699 H6         366.1808  -411.7776  -227.6401 H6            1 RES     
    8700 H6         364.2388  -412.6601  -226.2449 H6            1 RES     
    8701 H6         365.7597  -413.5831  -226.3029 H6            1 RES     
    8702 H6         363.2389  -414.3133  -227.8504 H6            1 RES     
    8703 H6         364.7751  -415.2109  -227.9848 H6            1 RES     
    8704 H6         362.9231  -416.1799  -226.5698 H6            1 RES     
    8705 H6         363.1136  -414.8618  -225.3860 H6            1 RES     
    8706 H6         364.1399  -417.0538  -224.7487 H6            1 RES     
    8707 H6         365.1494  -417.0667  -226.2272 H6            1 RES     
    8708 H6         366.4388  -416.5874  -224.1901 H6            1 RES     
    8709 H6         366.5506  -415.2297  -225.3141 H6            1 RES     
    8710 H6         364.6932  -415.4129  -222.8406 H6            1 RES     
    8711 H6         366.2214  -414.4609  -222.9624 H6            1 RES     
    8712 H6         364.7952  -413.9854  -223.9489 H6            1 RES     
    8713 C0         354.8614  -416.9205  -245.6106 C0            1 RES     
    8714 C1         354.5823  -415.5525  -244.9541 C1            1 RES     
    8715 C1         354.1269  -414.5061  -245.8925 C1            1 RES     
    8716 S2         354.8095  -412.9629  -245.2676 S2            1 RES     
    8717 C1         354.5633  -413.7348  -243.6528 C1            1 RES     
    8718 C1         354.6651  -415.1125  -243.7032 C1            1 RES     
    8719 C1         354.5391  -415.1139  -247.1490 C1            1 RES     
    8720 C1         354.9079  -416.4245  -247.0532 C1            1 RES     
    8721 C1         355.2184  -416.9933  -248.3015 C1            1 RES     
    8722 C1         355.0247  -416.0693  -249.3562 C1            1 RES     
    8723 S2         354.4839  -414.5903  -248.7203 S2            1 RES     
    8724 H3         354.9095  -415.6993  -242.8329 H3            1 RES     
    8725 H3         355.5465  -418.0164  -248.4372 H3            1 RES     
    8726 N4         356.0981  -417.3074  -251.1953 N4            1 RES     
    8727 C1         356.4136  -417.5363  -252.5047 C1            1 RES     
    8728 C1         355.8705  -416.7438  -253.5232 C1            1 RES     
    8729 C1         355.0001  -415.7203  -253.1699 C1            1 RES     
    8730 N4         354.3989  -414.9040  -254.0697 N4            1 RES     
    8731 S2         353.4949  -413.9187  -253.1003 S2            1 RES     
    8732 N4         353.8267  -414.4597  -251.5750 N4            1 RES     
    8733 C1         354.6945  -415.4809  -251.8025 C1            1 RES     
    8734 C1         355.2652  -416.2975  -250.8025 C1            1 RES     
    8735 H5         357.0971  -418.3358  -252.7597 H5            1 RES     
    8736 C0         353.6276  -417.8658  -245.4426 C0            1 RES     
    8737 C0         353.3440  -418.2552  -243.9884 C0            1 RES     
    8738 C0         352.0628  -419.0573  -243.7398 C0            1 RES     
    8739 C0         350.7483  -418.3490  -244.1045 C0            1 RES     
    8740 C0         350.6698  -416.8977  -243.5880 C0            1 RES     
    8741 C0         349.2552  -416.3180  -243.7076 C0            1 RES     
    8742 C0         348.3653  -416.8100  -242.5553 C0            1 RES     
    8743 C0         346.9315  -416.2958  -242.6905 C0            1 RES     
    8744 C0         346.1297  -416.6127  -241.4244 C0            1 RES     
    8745 C0         344.6019  -416.4272  -241.5168 C0            1 RES     
    8746 C0         344.0571  -415.0374  -241.9025 C0            1 RES     
    8747 C0         344.0831  -414.7594  -243.4222 C0            1 RES     
    8748 C0         343.4824  -413.4063  -243.8524 C0            1 RES     
    8749 C0         341.9416  -413.3139  -243.9669 C0            1 RES     
    8750 C0         341.1042  -413.4255  -242.6842 C0            1 RES     
    8751 C0         341.4947  -412.3925  -241.6290 C0            1 RES     
    8752 H6         352.7380  -417.3293  -245.8354 H6            1 RES     
    8753 H6         353.7587  -418.7853  -246.0538 H6            1 RES     
    8754 H6         354.1609  -418.8873  -243.6439 H6            1 RES     
    8755 H6         353.3005  -417.3535  -243.3500 H6            1 RES     
    8756 H6         352.1069  -420.0365  -244.2640 H6            1 RES     
    8757 H6         352.0380  -419.2628  -242.6460 H6            1 RES     
    8758 H6         350.6129  -418.3305  -245.2077 H6            1 RES     
    8759 H6         349.9359  -418.9737  -243.6795 H6            1 RES     
    8760 H6         351.0062  -416.8141  -242.5314 H6            1 RES     
    8761 H6         351.3551  -416.2859  -244.2131 H6            1 RES     
    8762 H6         348.8279  -416.5604  -244.7058 H6            1 RES     
    8763 H6         349.3173  -415.2112  -243.6181 H6            1 RES     
    8764 H6         348.3335  -417.9184  -242.5136 H6            1 RES     
    8765 H6         348.8062  -416.4349  -241.6042 H6            1 RES     
    8766 H6         346.9640  -415.1946  -242.8171 H6            1 RES     
    8767 H6         346.4712  -416.7810  -243.5789 H6            1 RES     
    8768 H6         346.2882  -417.6803  -241.1543 H6            1 RES     
    8769 H6         346.5336  -415.9909  -240.5942 H6            1 RES     
    8770 H6         344.1594  -417.1895  -242.1939 H6            1 RES     
    8771 H6         344.2316  -416.6501  -240.4910 H6            1 RES     
    8772 H6         344.5778  -414.2421  -241.3265 H6            1 RES     
    8773 H6         343.0094  -415.0481  -241.5789 H6            1 RES     
    8774 H6         345.1315  -414.7257  -243.7495 H6            1 RES     
    8775 H6         343.5864  -415.5775  -243.9878 H6            1 RES     
    8776 H6         343.8407  -413.2353  -244.8925 H6            1 RES     
    8777 H6         343.9018  -412.5844  -243.2348 H6            1 RES     
    8778 H6         341.7160  -412.3224  -244.4177 H6            1 RES     
    8779 H6         341.5880  -414.0890  -244.6815 H6            1 RES     
    8780 H6         340.0401  -413.2587  -242.9586 H6            1 RES     
    8781 H6         341.1484  -414.4466  -242.2678 H6            1 RES     
    8782 H6         341.3931  -411.3661  -242.0406 H6            1 RES     
    8783 H6         340.8253  -412.4925  -240.7491 H6            1 RES     
    8784 H6         342.5388  -412.5478  -241.2889 H6            1 RES     
    8785 C0         356.2461  -417.5939  -245.2362 C0            1 RES     
    8786 C0         356.6546  -417.4963  -243.7458 C0            1 RES     
    8787 C0         357.9010  -418.2863  -243.2913 C0            1 RES     
    8788 C0         357.7460  -419.8126  -243.0780 C0            1 RES     
    8789 C0         356.5285  -420.1695  -242.2000 C0            1 RES     
    8790 C0         356.5311  -421.5905  -241.6181 C0            1 RES     
    8791 C0         357.4302  -421.6899  -240.3747 C0            1 RES     
    8792 C0         357.3607  -423.0844  -239.7351 C0            1 RES     
    8793 C0         358.1139  -423.0996  -238.3983 C0            1 RES     
    8794 C0         358.3719  -424.4816  -237.7599 C0            1 RES     
    8795 C0         357.1651  -425.3446  -237.3336 C0            1 RES     
    8796 C0         356.4857  -426.1017  -238.4930 C0            1 RES     
    8797 C0         355.3392  -427.0466  -238.0742 C0            1 RES     
    8798 C0         355.7260  -428.4449  -237.5310 C0            1 RES     
    8799 C0         356.4473  -428.5350  -236.1774 C0            1 RES     
    8800 C0         355.6664  -427.8741  -235.0432 C0            1 RES     
    8801 H6         356.2199  -418.6521  -245.5754 H6            1 RES     
    8802 H6         357.0719  -417.0958  -245.7922 H6            1 RES     
    8803 H6         356.9077  -416.4292  -243.5769 H6            1 RES     
    8804 H6         355.8364  -417.7479  -243.0580 H6            1 RES     
    8805 H6         358.7631  -418.0747  -243.9595 H6            1 RES     
    8806 H6         358.1584  -417.8795  -242.2876 H6            1 RES     
    8807 H6         357.6641  -420.3541  -244.0452 H6            1 RES     
    8808 H6         358.6806  -420.1468  -242.5796 H6            1 RES     
    8809 H6         356.4052  -419.4513  -241.3595 H6            1 RES     
    8810 H6         355.6504  -420.0953  -242.8551 H6            1 RES     
    8811 H6         356.7997  -422.3357  -242.3986 H6            1 RES     
    8812 H6         355.4966  -421.8087  -241.2745 H6            1 RES     
    8813 H6         358.4836  -421.4527  -240.6326 H6            1 RES     
    8814 H6         357.0699  -420.9429  -239.6312 H6            1 RES     
    8815 H6         356.2962  -423.3201  -239.5425 H6            1 RES     
    8816 H6         357.8010  -423.8218  -240.4400 H6            1 RES     
    8817 H6         359.1203  -422.6562  -238.5654 H6            1 RES     
    8818 H6         357.5740  -422.4482  -237.6750 H6            1 RES     
    8819 H6         359.0439  -425.0859  -238.4067 H6            1 RES     
    8820 H6         358.9365  -424.2542  -236.8278 H6            1 RES     
    8821 H6         356.4344  -424.7355  -236.7586 H6            1 RES     
    8822 H6         357.5850  -426.0889  -236.6454 H6            1 RES     
    8823 H6         356.0238  -425.3580  -239.1575 H6            1 RES     
    8824 H6         357.2290  -426.6719  -239.0910 H6            1 RES     
    8825 H6         354.7777  -427.2683  -239.0094 H6            1 RES     
    8826 H6         354.6314  -426.5222  -237.3979 H6            1 RES     
    8827 H6         354.7791  -429.0205  -237.4313 H6            1 RES     
    8828 H6         356.3480  -428.9651  -238.2919 H6            1 RES     
    8829 H6         356.5717  -429.6122  -235.9311 H6            1 RES     
    8830 H6         357.4692  -428.1230  -236.2411 H6            1 RES     
    8831 H6         354.6601  -428.3350  -234.9502 H6            1 RES     
    8832 H6         356.2126  -428.0161  -234.0871 H6            1 RES     
    8833 H6         355.5553  -426.7850  -235.2211 H6            1 RES     
    8834 C0         356.8322  -419.3736  -258.0237 C0            1 RES     
    8835 C1         356.5456  -418.2567  -256.9987 C1            1 RES     
    8836 C1         356.8079  -416.8900  -257.4949 C1            1 RES     
    8837 S2         357.3942  -415.9603  -256.0703 S2            1 RES     
    8838 C1         356.2610  -417.0275  -255.1532 C1            1 RES     
    8839 C1         356.1041  -418.2666  -255.7455 C1            1 RES     
    8840 C1         357.6433  -417.2075  -258.6435 C1            1 RES     
    8841 C1         357.6583  -418.5278  -258.9888 C1            1 RES     
    8842 C1         358.4103  -418.7760  -260.1513 C1            1 RES     
    8843 C1         358.9285  -417.5787  -260.7005 C1            1 RES     
    8844 S2         358.4492  -416.2622  -259.7405 S2            1 RES     
    8845 H3         355.7832  -419.1303  -255.1866 H3            1 RES     
    8846 H3         358.5571  -419.7594  -260.5803 H3            1 RES     
    8847 N4         360.4861  -418.5226  -262.3588 N4            1 RES     
    8848 C1         361.3378  -418.4545  -263.4249 C1            1 RES     
    8849 C1         361.5138  -417.2564  -264.1277 C1            1 RES     
    8850 C1         360.7986  -416.1387  -263.7163 C1            1 RES     
    8851 N4         360.8729  -414.9334  -264.3320 N4            1 RES     
    8852 S2         359.8270  -414.0185  -263.4394 S2            1 RES     
    8853 N4         359.2766  -415.0665  -262.2870 N4            1 RES     
    8854 C1         359.9298  -416.2182  -262.5942 C1            1 RES     
    8855 C1         359.7815  -417.4422  -261.9069 C1            1 RES     
    8856 H5         361.8895  -419.3351  -263.7276 H5            1 RES     
    8857 C0         355.5112  -419.8075  -258.7383 C0            1 RES     
    8858 C0         354.4972  -420.4761  -257.8046 C0            1 RES     
    8859 C0         353.1249  -420.7899  -258.4088 C0            1 RES     
    8860 C0         352.3114  -419.5771  -258.8880 C0            1 RES     
    8861 C0         352.2798  -418.4187  -257.8700 C0            1 RES     
    8862 C0         351.2381  -417.3551  -258.2379 C0            1 RES     
    8863 C0         349.8293  -417.8039  -257.8191 C0            1 RES     
    8864 C0         348.7661  -416.7865  -258.2348 C0            1 RES     
    8865 C0         347.4123  -417.1464  -257.6150 C0            1 RES     
    8866 C0         346.1841  -416.3977  -258.1699 C0            1 RES     
    8867 C0         346.1725  -414.8578  -258.0948 C0            1 RES     
    8868 C0         346.9754  -414.1743  -259.2243 C0            1 RES     
    8869 C0         346.9299  -412.6333  -259.2222 C0            1 RES     
    8870 C0         345.6830  -411.9555  -259.8397 C0            1 RES     
    8871 C0         344.3308  -412.1260  -259.1316 C0            1 RES     
    8872 C0         344.3619  -411.6669  -257.6751 C0            1 RES     
    8873 H6         355.0415  -418.8932  -259.1591 H6            1 RES     
    8874 H6         355.7367  -420.4875  -259.5886 H6            1 RES     
    8875 H6         354.9092  -421.4339  -257.4911 H6            1 RES     
    8876 H6         354.3304  -419.8517  -256.9075 H6            1 RES     
    8877 H6         353.2228  -421.5165  -259.2442 H6            1 RES     
    8878 H6         352.5408  -421.2844  -257.6004 H6            1 RES     
    8879 H6         352.7265  -419.1865  -259.8425 H6            1 RES     
    8880 H6         351.2908  -419.9574  -259.0994 H6            1 RES     
    8881 H6         352.0789  -418.7788  -256.8372 H6            1 RES     
    8882 H6         353.2846  -417.9445  -257.8761 H6            1 RES     
    8883 H6         351.3023  -417.1192  -259.3233 H6            1 RES     
    8884 H6         351.4640  -416.4265  -257.6689 H6            1 RES     
    8885 H6         349.5664  -418.7836  -258.2692 H6            1 RES     
    8886 H6         349.8253  -417.9136  -256.7111 H6            1 RES     
    8887 H6         349.0687  -415.7886  -257.8579 H6            1 RES     
    8888 H6         348.7020  -416.7855  -259.3450 H6            1 RES     
    8889 H6         347.2112  -418.2268  -257.7892 H6            1 RES     
    8890 H6         347.4824  -416.9892  -256.5153 H6            1 RES     
    8891 H6         345.9805  -416.7101  -259.2168 H6            1 RES     
    8892 H6         345.3331  -416.7613  -257.5512 H6            1 RES     
    8893 H6         346.4978  -414.5151  -257.0888 H6            1 RES     
    8894 H6         345.1183  -414.5800  -258.2140 H6            1 RES     
    8895 H6         348.0364  -414.4310  -259.0981 H6            1 RES     
    8896 H6         346.6611  -414.5490  -260.2226 H6            1 RES     
    8897 H6         347.7674  -412.3069  -259.8791 H6            1 RES     
    8898 H6         347.1539  -412.2424  -258.2073 H6            1 RES     
    8899 H6         345.8983  -410.8647  -259.8720 H6            1 RES     
    8900 H6         345.5709  -412.3006  -260.8909 H6            1 RES     
    8901 H6         343.5831  -411.5094  -259.6758 H6            1 RES     
    8902 H6         343.9709  -413.1666  -259.2065 H6            1 RES     
    8903 H6         344.6714  -410.6020  -257.6148 H6            1 RES     
    8904 H6         343.3484  -411.7698  -257.2339 H6            1 RES     
    8905 H6         345.0633  -412.2853  -257.0789 H6            1 RES     
    8906 C0         357.7081  -420.5841  -257.4960 C0            1 RES     
    8907 C0         357.3644  -421.0858  -256.0719 C0            1 RES     
    8908 C0         358.0609  -422.3724  -255.5780 C0            1 RES     
    8909 C0         357.5291  -423.7265  -256.1093 C0            1 RES     
    8910 C0         355.9970  -423.8558  -255.9794 C0            1 RES     
    8911 C0         355.4445  -425.2831  -256.1032 C0            1 RES     
    8912 C0         355.6007  -426.0651  -254.7887 C0            1 RES     
    8913 C0         354.9639  -427.4598  -254.8797 C0            1 RES     
    8914 C0         354.9670  -428.1417  -253.5052 C0            1 RES     
    8915 C0         354.6137  -429.6444  -253.4724 C0            1 RES     
    8916 C0         353.2084  -430.0916  -253.9282 C0            1 RES     
    8917 C0         353.0334  -430.1709  -255.4586 C0            1 RES     
    8918 C0         351.6673  -430.7102  -255.9337 C0            1 RES     
    8919 C0         351.4667  -432.2463  -255.9396 C0            1 RES     
    8920 C0         351.4197  -432.9877  -254.5948 C0            1 RES     
    8921 C0         350.3374  -432.4528  -253.6592 C0            1 RES     
    8922 H6         357.6419  -421.4092  -258.2377 H6            1 RES     
    8923 H6         358.7781  -420.2819  -257.4421 H6            1 RES     
    8924 H6         357.7081  -420.2854  -255.3844 H6            1 RES     
    8925 H6         356.2858  -421.2118  -255.9088 H6            1 RES     
    8926 H6         359.1599  -422.3034  -255.7260 H6            1 RES     
    8927 H6         357.8807  -422.4025  -254.4799 H6            1 RES     
    8928 H6         357.8159  -423.8902  -257.1707 H6            1 RES     
    8929 H6         358.0261  -424.5096  -255.4984 H6            1 RES     
    8930 H6         355.6294  -423.4239  -255.0224 H6            1 RES     
    8931 H6         355.5726  -423.2769  -256.8103 H6            1 RES     
    8932 H6         355.9026  -425.8095  -256.9691 H6            1 RES     
    8933 H6         354.3517  -425.1993  -256.2896 H6            1 RES     
    8934 H6         356.6724  -426.1643  -254.5163 H6            1 RES     
    8935 H6         355.0821  -425.4928  -253.9861 H6            1 RES     
    8936 H6         353.9143  -427.3360  -255.2094 H6            1 RES     
    8937 H6         355.5345  -428.0642  -255.6170 H6            1 RES     
    8938 H6         355.9951  -428.0684  -253.0869 H6            1 RES     
    8939 H6         354.2856  -427.5822  -252.8257 H6            1 RES     
    8940 H6         355.3809  -430.2330  -254.0202 H6            1 RES     
    8941 H6         354.6959  -429.9241  -252.3980 H6            1 RES     
    8942 H6         352.4261  -429.4561  -253.4592 H6            1 RES     
    8943 H6         353.0941  -431.1048  -253.5231 H6            1 RES     
    8944 H6         353.1002  -429.1498  -255.8597 H6            1 RES     
    8945 H6         353.8449  -430.7698  -255.9255 H6            1 RES     
    8946 H6         351.5903  -430.4256  -257.0071 H6            1 RES     
    8947 H6         350.8399  -430.1877  -255.4086 H6            1 RES     
    8948 H6         350.4960  -432.4383  -256.4483 H6            1 RES     
    8949 H6         352.2620  -432.7088  -256.5642 H6            1 RES     
    8950 H6         351.1989  -434.0570  -254.8051 H6            1 RES     
    8951 H6         352.4057  -432.9781  -254.0987 H6            1 RES     
    8952 H6         349.3414  -432.5199  -254.1461 H6            1 RES     
    8953 H6         350.3204  -433.0591  -252.7293 H6            1 RES     
    8954 H6         350.5392  -431.3980  -253.3823 H6            1 RES     
    8955 C0         363.9773  -418.6052  -268.6231 C0            1 RES     
    8956 C1         363.4591  -417.8158  -267.4029 C1            1 RES     
    8957 C1         364.1871  -416.5585  -267.1347 C1            1 RES     
    8958 S2         364.1891  -416.3708  -265.3451 S2            1 RES     
    8959 C1         362.5724  -417.1697  -265.4551 C1            1 RES     
    8960 C1         362.4800  -418.0324  -266.5312 C1            1 RES     
    8961 C1         365.3899  -416.8056  -267.9157 C1            1 RES     
    8962 C1         365.3109  -417.8756  -268.7593 C1            1 RES     
    8963 C1         366.4624  -418.0272  -269.5527 C1            1 RES     
    8964 C1         367.4018  -416.9972  -269.3072 C1            1 RES     
    8965 S2         366.7886  -415.9421  -268.1260 S2            1 RES     
    8966 H3         361.7698  -418.8426  -266.5544 H3            1 RES     
    8967 H3         366.6017  -418.8230  -270.2738 H3            1 RES     
    8968 N4         369.3449  -417.9112  -270.5138 N4            1 RES     
    8969 C1         370.5973  -417.8481  -271.0560 C1            1 RES     
    8970 C1         371.3174  -416.6473  -271.0622 C1            1 RES     
    8971 C1         370.7257  -415.5202  -270.5059 C1            1 RES     
    8972 N4         371.3182  -414.3015  -270.4739 N4            1 RES     
    8973 S2         370.1737  -413.3744  -269.7266 S2            1 RES     
    8974 N4         368.9474  -414.4384  -269.4211 N4            1 RES     
    8975 C1         369.4295  -415.6036  -269.9283 C1            1 RES     
    8976 C1         368.7357  -416.8329  -269.9360 C1            1 RES     
    8977 H5         371.0432  -418.7381  -271.4810 H5            1 RES     
    8978 C0         363.1030  -418.2957  -269.8816 C0            1 RES     
    8979 C0         361.6581  -418.7909  -269.7643 C0            1 RES     
    8980 C0         360.7105  -418.3892  -270.8989 C0            1 RES     
    8981 C0         360.4790  -416.8800  -271.0750 C0            1 RES     
    8982 C0         360.1906  -416.1451  -269.7498 C0            1 RES     
    8983 C0         359.6814  -414.7171  -269.9805 C0            1 RES     
    8984 C0         358.1872  -414.7225  -270.3397 C0            1 RES     
    8985 C0         357.6734  -413.3134  -270.6376 C0            1 RES     
    8986 C0         356.1475  -413.3196  -270.7723 C0            1 RES     
    8987 C0         355.5066  -412.0465  -271.3602 C0            1 RES     
    8988 C0         355.7606  -410.7043  -270.6453 C0            1 RES     
    8989 C0         357.1212  -410.0612  -270.9953 C0            1 RES     
    8990 C0         357.3812  -408.6842  -270.3526 C0            1 RES     
    8991 C0         356.7405  -407.4486  -271.0295 C0            1 RES     
    8992 C0         355.2107  -407.3140  -271.0097 C0            1 RES     
    8993 C0         354.6303  -407.3487  -269.5973 C0            1 RES     
    8994 H6         363.0799  -417.1929  -270.0112 H6            1 RES     
    8995 H6         363.5704  -418.7284  -270.7931 H6            1 RES     
    8996 H6         361.6746  -419.8796  -269.7633 H6            1 RES     
    8997 H6         361.2078  -418.4427  -268.8165 H6            1 RES     
    8998 H6         361.0523  -418.8208  -271.8646 H6            1 RES     
    8999 H6         359.7275  -418.8507  -270.6542 H6            1 RES     
    9000 H6         361.3668  -416.4056  -271.5466 H6            1 RES     
    9001 H6         359.6318  -416.7811  -271.7846 H6            1 RES     
    9002 H6         359.4548  -416.6938  -269.1222 H6            1 RES     
    9003 H6         361.1465  -416.0913  -269.1858 H6            1 RES     
    9004 H6         360.3012  -414.2127  -270.7547 H6            1 RES     
    9005 H6         359.7836  -414.1470  -269.0311 H6            1 RES     
    9006 H6         357.9865  -415.3593  -271.2261 H6            1 RES     
    9007 H6         357.6327  -415.1441  -269.4711 H6            1 RES     
    9008 H6         357.9466  -412.6535  -269.7895 H6            1 RES     
    9009 H6         358.1495  -412.9623  -271.5792 H6            1 RES     
    9010 H6         355.8483  -414.1490  -271.4508 H6            1 RES     
    9011 H6         355.7124  -413.5300  -269.7696 H6            1 RES     
    9012 H6         355.7720  -411.9398  -272.4342 H6            1 RES     
    9013 H6         354.4113  -412.2392  -271.3140 H6            1 RES     
    9014 H6         355.6249  -410.8166  -269.5478 H6            1 RES     
    9015 H6         354.9687  -410.0390  -271.0101 H6            1 RES     
    9016 H6         357.9197  -410.7124  -270.6132 H6            1 RES     
    9017 H6         357.2564  -409.9836  -272.0959 H6            1 RES     
    9018 H6         358.4761  -408.5083  -270.4513 H6            1 RES     
    9019 H6         357.1640  -408.7195  -269.2643 H6            1 RES     
    9020 H6         357.1526  -406.5543  -270.5122 H6            1 RES     
    9021 H6         357.0799  -407.4030  -272.0875 H6            1 RES     
    9022 H6         354.9504  -406.3363  -271.4699 H6            1 RES     
    9023 H6         354.7356  -408.0796  -271.6471 H6            1 RES     
    9024 H6         355.0738  -406.5389  -268.9801 H6            1 RES     
    9025 H6         353.5313  -407.1995  -269.6460 H6            1 RES     
    9026 H6         354.8256  -408.3265  -269.1118 H6            1 RES     
    9027 C0         364.2395  -420.1494  -268.3832 C0            1 RES     
    9028 C0         363.1667  -420.8863  -267.5443 C0            1 RES     
    9029 C0         363.2766  -422.4223  -267.4304 C0            1 RES     
    9030 C0         362.8115  -423.2677  -268.6419 C0            1 RES     
    9031 C0         361.4121  -422.8609  -269.1486 C0            1 RES     
    9032 C0         360.7202  -423.8833  -270.0618 C0            1 RES     
    9033 C0         360.0733  -425.0180  -269.2507 C0            1 RES     
    9034 C0         359.3000  -425.9905  -270.1534 C0            1 RES     
    9035 C0         358.5127  -426.9986  -269.3059 C0            1 RES     
    9036 C0         357.9020  -428.2064  -270.0489 C0            1 RES     
    9037 C0         356.8293  -427.9541  -271.1297 C0            1 RES     
    9038 C0         357.3956  -427.5097  -272.4938 C0            1 RES     
    9039 C0         356.3477  -427.3475  -273.6156 C0            1 RES     
    9040 C0         355.8798  -428.6292  -274.3492 C0            1 RES     
    9041 C0         355.0523  -429.6628  -273.5698 C0            1 RES     
    9042 C0         353.7821  -429.0707  -272.9624 C0            1 RES     
    9043 H6         364.3768  -420.6356  -269.3732 H6            1 RES     
    9044 H6         365.1890  -420.2890  -267.8192 H6            1 RES     
    9045 H6         363.2882  -420.5073  -266.5085 H6            1 RES     
    9046 H6         362.1404  -420.6518  -267.8567 H6            1 RES     
    9047 H6         364.3021  -422.7190  -267.1223 H6            1 RES     
    9048 H6         362.5914  -422.7064  -266.6003 H6            1 RES     
    9049 H6         363.5327  -423.2045  -269.4853 H6            1 RES     
    9050 H6         362.7927  -424.3207  -268.2891 H6            1 RES     
    9051 H6         360.7238  -422.6269  -268.3066 H6            1 RES     
    9052 H6         361.5586  -421.9500  -269.7441 H6            1 RES     
    9053 H6         361.4241  -424.2606  -270.8357 H6            1 RES     
    9054 H6         359.8897  -423.3555  -270.5790 H6            1 RES     
    9055 H6         360.8417  -425.5770  -268.6765 H6            1 RES     
    9056 H6         359.3569  -424.5594  -268.5316 H6            1 RES     
    9057 H6         358.5828  -425.4009  -270.7565 H6            1 RES     
    9058 H6         360.0235  -426.5156  -270.8132 H6            1 RES     
    9059 H6         359.2076  -427.4323  -268.5533 H6            1 RES     
    9060 H6         357.7132  -426.4557  -268.7536 H6            1 RES     
    9061 H6         358.7064  -428.8451  -270.4733 H6            1 RES     
    9062 H6         357.4043  -428.7998  -269.2492 H6            1 RES     
    9063 H6         356.0588  -427.2454  -270.7559 H6            1 RES     
    9064 H6         356.3404  -428.9266  -271.2685 H6            1 RES     
    9065 H6         357.8434  -426.5142  -272.3656 H6            1 RES     
    9066 H6         358.1973  -428.1975  -272.8396 H6            1 RES     
    9067 H6         356.8504  -426.7520  -274.4105 H6            1 RES     
    9068 H6         355.4898  -426.7385  -273.2601 H6            1 RES     
    9069 H6         355.2542  -428.2947  -275.2063 H6            1 RES     
    9070 H6         356.7695  -429.1441  -274.7731 H6            1 RES     
    9071 H6         354.7556  -430.4647  -274.2807 H6            1 RES     
    9072 H6         355.6614  -430.1603  -272.7954 H6            1 RES     
    9073 H6         353.1488  -428.6229  -273.7574 H6            1 RES     
    9074 H6         353.2050  -429.8737  -272.4578 H6            1 RES     
    9075 H6         354.0279  -428.2943  -272.2095 H6            1 RES     
    9076 C0         375.3138  -417.4145  -274.4586 C0            1 RES     
    9077 C1         374.4404  -416.8874  -273.3012 C1            1 RES     
    9078 C1         375.1803  -416.1215  -272.2771 C1            1 RES     
    9079 S2         374.3630  -416.4834  -270.7153 S2            1 RES     
    9080 C1         372.8755  -416.5664  -271.7373 C1            1 RES     
    9081 C1         373.1429  -416.9778  -273.0296 C1            1 RES     
    9082 C1         376.5358  -416.5491  -272.5898 C1            1 RES     
    9083 C1         376.6632  -417.2168  -273.7733 C1            1 RES     
    9084 C1         377.9992  -417.5375  -274.0743 C1            1 RES     
    9085 C1         378.8869  -417.0430  -273.0888 C1            1 RES     
    9086 S2         378.0024  -416.2351  -271.8850 S2            1 RES     
    9087 H3         372.3880  -417.4273  -273.6537 H3            1 RES     
    9088 H3         378.3084  -418.0790  -274.9597 H3            1 RES     
    9089 N4         380.9501  -418.2044  -273.7681 N4            1 RES     
    9090 C1         382.2942  -418.4463  -273.7329 C1            1 RES     
    9091 C1         383.1476  -417.6468  -272.9628 C1            1 RES     
    9092 C1         382.5943  -416.5991  -272.2375 C1            1 RES     
    9093 N4         383.3237  -415.7484  -271.4748 N4            1 RES     
    9094 S2         382.1667  -414.7319  -270.8785 S2            1 RES     
    9095 N4         380.7632  -415.3138  -271.5272 N4            1 RES     
    9096 C1         381.1918  -416.3696  -272.2681 C1            1 RES     
    9097 C1         380.3620  -417.1998  -273.0522 C1            1 RES     
    9098 H5         382.7060  -419.2700  -274.3015 H5            1 RES     
    9099 C0         375.2270  -416.4515  -275.6870 C0            1 RES     
    9100 C0         373.8370  -416.3959  -276.3286 C0            1 RES     
    9101 C0         373.6461  -415.3611  -277.4419 C0            1 RES     
    9102 C0         373.8257  -413.8918  -277.0281 C0            1 RES     
    9103 C0         373.0883  -413.5276  -275.7232 C0            1 RES     
    9104 C0         373.0404  -412.0126  -275.4907 C0            1 RES     
    9105 C0         371.9313  -411.3662  -276.3354 C0            1 RES     
    9106 C0         371.9080  -409.8463  -276.1683 C0            1 RES     
    9107 C0         370.6643  -409.2550  -276.8392 C0            1 RES     
    9108 C0         370.6442  -407.7236  -277.0165 C0            1 RES     
    9109 C0         370.7812  -406.8413  -275.7595 C0            1 RES     
    9110 C0         372.2391  -406.6671  -275.2781 C0            1 RES     
    9111 C0         372.4226  -405.7351  -274.0638 C0            1 RES     
    9112 C0         372.4379  -404.2106  -274.3306 C0            1 RES     
    9113 C0         371.1444  -403.5390  -274.8151 C0            1 RES     
    9114 C0         369.9653  -403.7736  -273.8729 C0            1 RES     
    9115 H6         375.4838  -415.4309  -275.3321 H6            1 RES     
    9116 H6         375.9788  -416.7358  -276.4553 H6            1 RES     
    9117 H6         373.6387  -417.3637  -276.7862 H6            1 RES     
    9118 H6         373.0660  -416.2030  -275.5600 H6            1 RES     
    9119 H6         374.3164  -415.5828  -278.3004 H6            1 RES     
    9120 H6         372.5973  -415.4819  -277.7951 H6            1 RES     
    9121 H6         374.9039  -413.6581  -276.8920 H6            1 RES     
    9122 H6         373.4587  -413.2862  -277.8823 H6            1 RES     
    9123 H6         372.0511  -413.9284  -275.7065 H6            1 RES     
    9124 H6         373.6477  -413.9950  -274.8847 H6            1 RES     
    9125 H6         374.0395  -411.5654  -275.6898 H6            1 RES     
    9126 H6         372.7849  -411.8258  -274.4244 H6            1 RES     
    9127 H6         372.0592  -411.5943  -277.4139 H6            1 RES     
    9128 H6         370.9590  -411.7918  -275.9989 H6            1 RES     
    9129 H6         371.8649  -409.6129  -275.0851 H6            1 RES     
    9130 H6         372.8342  -409.4328  -276.6238 H6            1 RES     
    9131 H6         370.5709  -409.6786  -277.8638 H6            1 RES     
    9132 H6         369.7713  -409.5772  -276.2580 H6            1 RES     
    9133 H6         371.4058  -407.4101  -277.7628 H6            1 RES     
    9134 H6         369.6465  -407.5075  -277.4601 H6            1 RES     
    9135 H6         370.1185  -407.2141  -274.9487 H6            1 RES     
    9136 H6         370.4070  -405.8573  -276.0664 H6            1 RES     
    9137 H6         372.6135  -407.6462  -274.9484 H6            1 RES     
    9138 H6         372.8962  -406.3238  -276.1064 H6            1 RES     
    9139 H6         373.4417  -405.9503  -273.6709 H6            1 RES     
    9140 H6         371.7093  -406.0073  -273.2576 H6            1 RES     
    9141 H6         372.7177  -403.7234  -273.3706 H6            1 RES     
    9142 H6         373.2433  -403.9827  -275.0628 H6            1 RES     
    9143 H6         371.3319  -402.4450  -274.8737 H6            1 RES     
    9144 H6         370.8933  -403.8541  -275.8425 H6            1 RES     
    9145 H6         370.2077  -403.4020  -272.8548 H6            1 RES     
    9146 H6         369.0764  -403.2262  -274.2506 H6            1 RES     
    9147 H6         369.7101  -404.8514  -273.8171 H6            1 RES     
    9148 C0         375.1232  -418.9447  -274.8232 C0            1 RES     
    9149 C0         373.6598  -419.4508  -274.8350 C0            1 RES     
    9150 C0         373.4005  -420.8811  -275.3560 C0            1 RES     
    9151 C0         373.4168  -421.1013  -276.8890 C0            1 RES     
    9152 C0         372.5398  -420.0819  -277.6455 C0            1 RES     
    9153 C0         372.1847  -420.4635  -279.0898 C0            1 RES     
    9154 C0         371.0220  -421.4683  -279.1389 C0            1 RES     
    9155 C0         370.6020  -421.7791  -280.5831 C0            1 RES     
    9156 C0         369.3263  -422.6316  -280.5992 C0            1 RES     
    9157 C0         368.9234  -423.2567  -281.9523 C0            1 RES     
    9158 C0         368.5704  -422.3240  -283.1305 C0            1 RES     
    9159 C0         369.7941  -421.7367  -283.8630 C0            1 RES     
    9160 C0         369.4646  -420.8806  -285.1045 C0            1 RES     
    9161 C0         369.1650  -421.6258  -286.4292 C0            1 RES     
    9162 C0         367.8825  -422.4661  -286.5272 C0            1 RES     
    9163 C0         366.6195  -421.6582  -286.2355 C0            1 RES     
    9164 H6         375.6194  -419.1328  -275.7998 H6            1 RES     
    9165 H6         375.6396  -419.5807  -274.0696 H6            1 RES     
    9166 H6         373.3424  -419.4654  -273.7718 H6            1 RES     
    9167 H6         372.9758  -418.7771  -275.3680 H6            1 RES     
    9168 H6         374.0738  -421.6082  -274.8535 H6            1 RES     
    9169 H6         372.3615  -421.1262  -275.0405 H6            1 RES     
    9170 H6         374.4501  -421.0604  -277.2967 H6            1 RES     
    9171 H6         373.0271  -422.1283  -277.0532 H6            1 RES     
    9172 H6         371.5933  -419.8719  -277.1001 H6            1 RES     
    9173 H6         373.1272  -419.1556  -277.6961 H6            1 RES     
    9174 H6         373.0841  -420.8258  -279.6344 H6            1 RES     
    9175 H6         371.8234  -419.5418  -279.5957 H6            1 RES     
    9176 H6         371.2968  -422.4116  -278.6219 H6            1 RES     
    9177 H6         370.1539  -421.0135  -278.6097 H6            1 RES     
    9178 H6         370.3908  -420.8190  -281.0923 H6            1 RES     
    9179 H6         371.4349  -422.3128  -281.0891 H6            1 RES     
    9180 H6         369.4772  -423.4899  -279.9078 H6            1 RES     
    9181 H6         368.4831  -422.0228  -280.2023 H6            1 RES     
    9182 H6         369.6909  -423.9895  -282.2824 H6            1 RES     
    9183 H6         367.9992  -423.8345  -281.7253 H6            1 RES     
    9184 H6         367.8697  -421.5268  -282.8000 H6            1 RES     
    9185 H6         368.0288  -422.9636  -283.8387 H6            1 RES     
    9186 H6         370.3102  -421.0586  -283.1687 H6            1 RES     
    9187 H6         370.5122  -422.5350  -284.1500 H6            1 RES     
    9188 H6         370.3910  -420.3041  -285.3247 H6            1 RES     
    9189 H6         368.6783  -420.1342  -284.8636 H6            1 RES     
    9190 H6         369.1041  -420.8496  -287.2240 H6            1 RES     
    9191 H6         370.0295  -422.2806  -286.6750 H6            1 RES     
    9192 H6         367.8122  -422.8566  -287.5660 H6            1 RES     
    9193 H6         367.9371  -423.3558  -285.8764 H6            1 RES     
    9194 H6         366.5443  -420.7975  -286.9335 H6            1 RES     
    9195 H6         365.7276  -422.3053  -286.3712 H6            1 RES     
    9196 H6         366.6211  -421.2839  -285.1915 H6            1 RES     
    9197 C0         388.0450  -418.7834  -274.6421 C0            1 RES     
    9198 C1         386.8461  -418.3398  -273.7783 C1            1 RES     
    9199 C1         387.1393  -418.2350  -272.3340 C1            1 RES     
    9200 S2         385.6222  -418.7160  -271.4944 S2            1 RES     
    9201 C1         384.8206  -417.9454  -272.9183 C1            1 RES     
    9202 C1         385.5874  -418.0259  -274.0657 C1            1 RES     
    9203 C1         388.3666  -419.0154  -272.2806 C1            1 RES     
    9204 C1         388.9115  -419.3032  -273.4983 C1            1 RES     
    9205 C1         390.1372  -419.9856  -273.3966 C1            1 RES     
    9206 C1         390.5226  -420.1631  -272.0462 C1            1 RES     
    9207 S2         389.3467  -419.4810  -271.0281 S2            1 RES     
    9208 H3         385.1517  -417.9636  -275.0493 H3            1 RES     
    9209 H3         390.7199  -420.3160  -274.2474 H3            1 RES     
    9210 N4         392.3883  -421.7420  -272.3509 N4            1 RES     
    9211 C1         393.4756  -422.4567  -271.9344 C1            1 RES     
    9212 C1         393.9940  -422.2889  -270.6446 C1            1 RES     
    9213 C1         393.3772  -421.3751  -269.7993 C1            1 RES     
    9214 N4         393.8029  -421.1146  -268.5390 N4            1 RES     
    9215 S2         392.7248  -419.9699  -268.0341 S2            1 RES     
    9216 N4         391.7195  -419.7805  -269.3313 N4            1 RES     
    9217 C1         392.2354  -420.6514  -270.2386 C1            1 RES     
    9218 C1         391.7379  -420.8508  -271.5444 C1            1 RES     
    9219 H5         393.9398  -423.1672  -272.6062 H5            1 RES     
    9220 C0         388.7454  -417.5396  -275.2795 C0            1 RES     
    9221 C0         387.8724  -416.7941  -276.2939 C0            1 RES     
    9222 C0         388.4426  -415.4828  -276.8434 C0            1 RES     
    9223 C0         388.6845  -414.3725  -275.8085 C0            1 RES     
    9224 C0         387.5000  -414.1657  -274.8423 C0            1 RES     
    9225 C0         387.6427  -412.8786  -274.0210 C0            1 RES     
    9226 C0         387.2225  -411.6541  -274.8490 C0            1 RES     
    9227 C0         387.4184  -410.3525  -274.0707 C0            1 RES     
    9228 C0         386.7892  -409.1787  -274.8274 C0            1 RES     
    9229 C0         387.1548  -407.7667  -274.3280 C0            1 RES     
    9230 C0         386.8429  -407.4075  -272.8614 C0            1 RES     
    9231 C0         387.8953  -407.9275  -271.8567 C0            1 RES     
    9232 C0         387.6533  -407.5288  -270.3872 C0            1 RES     
    9233 C0         388.0908  -406.1094  -269.9519 C0            1 RES     
    9234 C0         387.3453  -404.9015  -270.5383 C0            1 RES     
    9235 C0         385.8393  -404.9556  -270.2890 C0            1 RES     
    9236 H6         388.9943  -416.8364  -274.4566 H6            1 RES     
    9237 H6         389.7012  -417.8390  -275.7622 H6            1 RES     
    9238 H6         387.7329  -417.4418  -277.1579 H6            1 RES     
    9239 H6         386.8821  -416.5686  -275.8570 H6            1 RES     
    9240 H6         389.3840  -415.6705  -277.4037 H6            1 RES     
    9241 H6         387.6896  -415.1026  -277.5699 H6            1 RES     
    9242 H6         389.5884  -414.5997  -275.2026 H6            1 RES     
    9243 H6         388.8965  -413.4522  -276.3908 H6            1 RES     
    9244 H6         386.5257  -414.1460  -275.3781 H6            1 RES     
    9245 H6         387.4873  -415.0297  -274.1438 H6            1 RES     
    9246 H6         388.6807  -412.7898  -273.6304 H6            1 RES     
    9247 H6         386.9505  -412.9343  -273.1522 H6            1 RES     
    9248 H6         387.8033  -411.5848  -275.7920 H6            1 RES     
    9249 H6         386.1461  -411.7742  -275.1070 H6            1 RES     
    9250 H6         386.9092  -410.4495  -273.0905 H6            1 RES     
    9251 H6         388.5101  -410.1913  -273.9332 H6            1 RES     
    9252 H6         387.1166  -409.2171  -275.8901 H6            1 RES     
    9253 H6         385.6838  -409.3084  -274.8099 H6            1 RES     
    9254 H6         388.2249  -407.5480  -274.5339 H6            1 RES     
    9255 H6         386.5545  -407.0809  -274.9670 H6            1 RES     
    9256 H6         385.8152  -407.7335  -272.5914 H6            1 RES     
    9257 H6         386.8607  -406.3114  -272.8321 H6            1 RES     
    9258 H6         387.8678  -409.0260  -271.8650 H6            1 RES     
    9259 H6         388.9209  -407.6204  -272.1558 H6            1 RES     
    9260 H6         388.2964  -408.2067  -269.7820 H6            1 RES     
    9261 H6         386.6040  -407.7462  -270.0966 H6            1 RES     
    9262 H6         387.9662  -406.0640  -268.8475 H6            1 RES     
    9263 H6         389.1750  -405.9867  -270.1666 H6            1 RES     
    9264 H6         387.7468  -403.9864  -270.0516 H6            1 RES     
    9265 H6         387.5601  -404.7856  -271.6147 H6            1 RES     
    9266 H6         385.6325  -405.0156  -269.1996 H6            1 RES     
    9267 H6         385.3651  -404.0365  -270.6925 H6            1 RES     
    9268 H6         385.3843  -405.8308  -270.7959 H6            1 RES     
    9269 C0         387.7581  -419.9580  -275.6664 C0            1 RES     
    9270 C0         386.4119  -419.8673  -276.4261 C0            1 RES     
    9271 C0         386.1605  -420.8824  -277.5622 C0            1 RES     
    9272 C0         386.8645  -420.6316  -278.9188 C0            1 RES     
    9273 C0         386.6734  -419.1884  -279.4298 C0            1 RES     
    9274 C0         386.9856  -418.9706  -280.9174 C0            1 RES     
    9275 C0         385.8176  -419.4191  -281.8111 C0            1 RES     
    9276 C0         386.0879  -419.1151  -283.2921 C0            1 RES     
    9277 C0         384.8370  -419.3975  -284.1347 C0            1 RES     
    9278 C0         385.0172  -419.4042  -285.6681 C0            1 RES     
    9279 C0         385.4597  -418.1047  -286.3740 C0            1 RES     
    9280 C0         386.9723  -417.8170  -286.2829 C0            1 RES     
    9281 C0         387.4503  -416.5751  -287.0652 C0            1 RES     
    9282 C0         387.6820  -416.7340  -288.5887 C0            1 RES     
    9283 C0         386.4668  -416.9790  -289.4964 C0            1 RES     
    9284 C0         385.4029  -415.8903  -289.3712 C0            1 RES     
    9285 H6         388.6134  -420.0178  -276.3737 H6            1 RES     
    9286 H6         387.7163  -420.9301  -275.1257 H6            1 RES     
    9287 H6         385.6289  -420.0773  -275.6684 H6            1 RES     
    9288 H6         386.2120  -418.8657  -276.8294 H6            1 RES     
    9289 H6         386.3553  -421.9184  -277.2109 H6            1 RES     
    9290 H6         385.0721  -420.8126  -277.7848 H6            1 RES     
    9291 H6         387.9524  -420.8527  -278.8616 H6            1 RES     
    9292 H6         386.4094  -421.3480  -279.6351 H6            1 RES     
    9293 H6         385.6429  -418.8179  -279.2343 H6            1 RES     
    9294 H6         387.3810  -418.5698  -278.8621 H6            1 RES     
    9295 H6         387.9457  -419.4586  -281.1944 H6            1 RES     
    9296 H6         387.0975  -417.8757  -281.0747 H6            1 RES     
    9297 H6         385.6222  -420.5047  -281.6855 H6            1 RES     
    9298 H6         384.9097  -418.8563  -281.4959 H6            1 RES     
    9299 H6         386.3373  -418.0401  -283.3809 H6            1 RES     
    9300 H6         386.9392  -419.7415  -283.6345 H6            1 RES     
    9301 H6         384.4687  -420.4142  -283.8737 H6            1 RES     
    9302 H6         384.0437  -418.6689  -283.8542 H6            1 RES     
    9303 H6         385.6898  -420.2344  -285.9739 H6            1 RES     
    9304 H6         384.0047  -419.6439  -286.0641 H6            1 RES     
    9305 H6         384.8568  -417.2421  -286.0160 H6            1 RES     
    9306 H6         385.2100  -418.2634  -287.4305 H6            1 RES     
    9307 H6         387.2143  -417.6110  -285.2308 H6            1 RES     
    9308 H6         387.5691  -418.6998  -286.5989 H6            1 RES     
    9309 H6         388.4613  -416.3394  -286.6634 H6            1 RES     
    9310 H6         386.8070  -415.6998  -286.8344 H6            1 RES     
    9311 H6         388.1609  -415.7922  -288.9374 H6            1 RES     
    9312 H6         388.4124  -417.5555  -288.7560 H6            1 RES     
    9313 H6         386.8272  -416.9925  -290.5483 H6            1 RES     
    9314 H6         386.0292  -417.9764  -289.3176 H6            1 RES     
    9315 H6         385.8398  -414.8972  -289.6090 H6            1 RES     
    9316 H6         384.5779  -416.0963  -290.0851 H6            1 RES     
    9317 H6         384.9781  -415.8677  -288.3470 H6            1 RES     
    9318 C0         398.7700  -424.5862  -270.7320 C0            1 RES     
    9319 C1         397.4166  -424.0110  -270.2653 C1            1 RES     
    9320 C1         396.9976  -424.4508  -268.9185 C1            1 RES     
    9321 S2         395.2032  -424.5689  -268.9826 S2            1 RES     
    9322 C1         395.3475  -423.1764  -270.1246 C1            1 RES     
    9323 C1         396.5370  -423.1897  -270.8286 C1            1 RES     
    9324 C1         397.8713  -425.6037  -268.7594 C1            1 RES     
    9325 C1         398.8641  -425.6984  -269.6910 C1            1 RES     
    9326 C1         399.7325  -426.7785  -269.4507 C1            1 RES     
    9327 C1         399.3824  -427.4735  -268.2683 C1            1 RES     
    9328 S2         398.0213  -426.7415  -267.5639 S2            1 RES     
    9329 H3         396.6463  -422.6860  -271.7750 H3            1 RES     
    9330 H3         400.5740  -427.0325  -270.0831 H3            1 RES     
    9331 N4         400.8186  -429.4594  -268.5133 N4            1 RES     
    9332 C1         401.4117  -430.6102  -268.0768 C1            1 RES     
    9333 C1         401.2717  -431.0309  -266.7487 C1            1 RES     
    9334 C1         400.5172  -430.2475  -265.8844 C1            1 RES     
    9335 N4         400.3299  -430.5440  -264.5749 N4            1 RES     
    9336 S2         399.3879  -429.2880  -264.0622 S2            1 RES     
    9337 N4         399.1841  -428.3718  -265.4217 N4            1 RES     
    9338 C1         399.8901  -429.0622  -266.3558 C1            1 RES     
    9339 C1         400.0495  -428.6723  -267.7030 C1            1 RES     
    9340 H5         401.9921  -431.2094  -268.7664 H5            1 RES     
    9341 C0         399.9167  -423.5557  -270.4730 C0            1 RES     
    9342 C0         399.7991  -422.2799  -271.3130 C0            1 RES     
    9343 C0         400.8054  -421.1682  -271.0000 C0            1 RES     
    9344 C0         400.7340  -420.5805  -269.5816 C0            1 RES     
    9345 C0         399.2978  -420.2499  -269.1262 C0            1 RES     
    9346 C0         399.2779  -419.4071  -267.8453 C0            1 RES     
    9347 C0         399.5523  -417.9284  -268.1613 C0            1 RES     
    9348 C0         399.6013  -417.0795  -266.8904 C0            1 RES     
    9349 C0         399.6527  -415.5903  -267.2454 C0            1 RES     
    9350 C0         400.0019  -414.6237  -266.0962 C0            1 RES     
    9351 C0         399.1035  -414.6243  -264.8432 C0            1 RES     
    9352 C0         399.4233  -415.7637  -263.8496 C0            1 RES     
    9353 C0         398.5911  -415.7558  -262.5518 C0            1 RES     
    9354 C0         399.0339  -414.7900  -261.4263 C0            1 RES     
    9355 C0         398.9110  -413.2783  -261.6682 C0            1 RES     
    9356 C0         397.4914  -412.8497  -262.0346 C0            1 RES     
    9357 H6         399.8734  -423.2678  -269.4012 H6            1 RES     
    9358 H6         400.9079  -424.0270  -270.6514 H6            1 RES     
    9359 H6         399.9667  -422.5467  -272.3552 H6            1 RES     
    9360 H6         398.7860  -421.8478  -271.2166 H6            1 RES     
    9361 H6         401.8431  -421.5127  -271.2002 H6            1 RES     
    9362 H6         400.5819  -420.3436  -271.7138 H6            1 RES     
    9363 H6         401.1743  -421.2896  -268.8473 H6            1 RES     
    9364 H6         401.3731  -419.6736  -269.5935 H6            1 RES     
    9365 H6         398.7234  -419.7191  -269.9167 H6            1 RES     
    9366 H6         398.7848  -421.2140  -268.9214 H6            1 RES     
    9367 H6         399.9975  -419.8226  -267.1054 H6            1 RES     
    9368 H6         398.2589  -419.4594  -267.4027 H6            1 RES     
    9369 H6         400.5140  -417.8016  -268.7002 H6            1 RES     
    9370 H6         398.7303  -417.5655  -268.8188 H6            1 RES     
    9371 H6         398.6777  -417.2678  -266.3065 H6            1 RES     
    9372 H6         400.5019  -417.3761  -266.3095 H6            1 RES     
    9373 H6         400.4336  -415.4308  -268.0216 H6            1 RES     
    9374 H6         398.6723  -415.3064  -267.6897 H6            1 RES     
    9375 H6         401.0593  -414.7606  -265.7828 H6            1 RES     
    9376 H6         399.9268  -413.6107  -266.5515 H6            1 RES     
    9377 H6         398.0307  -414.6165  -265.1339 H6            1 RES     
    9378 H6         399.3181  -413.6714  -264.3448 H6            1 RES     
    9379 H6         399.1899  -416.7213  -264.3352 H6            1 RES     
    9380 H6         400.5045  -415.7787  -263.5918 H6            1 RES     
    9381 H6         398.7206  -416.7674  -262.1055 H6            1 RES     
    9382 H6         397.5111  -415.6503  -262.7870 H6            1 RES     
    9383 H6         398.4081  -415.0295  -260.5384 H6            1 RES     
    9384 H6         400.0891  -415.0142  -261.1559 H6            1 RES     
    9385 H6         399.2002  -412.7600  -260.7285 H6            1 RES     
    9386 H6         399.6320  -412.9375  -262.4310 H6            1 RES     
    9387 H6         396.7817  -413.1480  -261.2342 H6            1 RES     
    9388 H6         397.4571  -411.7461  -262.1494 H6            1 RES     
    9389 H6         397.1736  -413.3074  -262.9935 H6            1 RES     
    9390 C0         398.7854  -425.2173  -272.1854 C0            1 RES     
    9391 C0         398.0133  -424.4221  -273.2667 C0            1 RES     
    9392 C0         398.1435  -424.8924  -274.7316 C0            1 RES     
    9393 C0         399.4439  -424.5285  -275.4903 C0            1 RES     
    9394 C0         399.8055  -423.0336  -275.3671 C0            1 RES     
    9395 C0         400.8265  -422.5173  -276.3912 C0            1 RES     
    9396 C0         400.1661  -422.2240  -277.7484 C0            1 RES     
    9397 C0         401.1648  -421.6181  -278.7455 C0            1 RES     
    9398 C0         400.4413  -421.1628  -280.0198 C0            1 RES     
    9399 C0         401.3274  -420.7830  -281.2258 C0            1 RES     
    9400 C0         402.2969  -419.5891  -281.0939 C0            1 RES     
    9401 C0         403.6048  -419.9140  -280.3438 C0            1 RES     
    9402 C0         404.6299  -418.7613  -280.2868 C0            1 RES     
    9403 C0         405.5258  -418.5377  -281.5307 C0            1 RES     
    9404 C0         404.8714  -418.0432  -282.8299 C0            1 RES     
    9405 C0         404.1122  -416.7302  -282.6501 C0            1 RES     
    9406 H6         399.8445  -425.3741  -272.4840 H6            1 RES     
    9407 H6         398.3019  -426.2198  -272.1680 H6            1 RES     
    9408 H6         396.9396  -424.5448  -273.0150 H6            1 RES     
    9409 H6         398.2299  -423.3458  -273.2459 H6            1 RES     
    9410 H6         397.9408  -425.9819  -274.8119 H6            1 RES     
    9411 H6         397.3314  -424.3678  -275.2833 H6            1 RES     
    9412 H6         400.3052  -425.1377  -275.1403 H6            1 RES     
    9413 H6         399.2571  -424.7842  -276.5548 H6            1 RES     
    9414 H6         398.9015  -422.3878  -275.4234 H6            1 RES     
    9415 H6         400.2605  -422.9128  -274.3751 H6            1 RES     
    9416 H6         401.6862  -423.2173  -276.4782 H6            1 RES     
    9417 H6         401.2106  -421.5449  -276.0134 H6            1 RES     
    9418 H6         399.7273  -423.1484  -278.1789 H6            1 RES     
    9419 H6         399.3473  -421.4882  -277.5787 H6            1 RES     
    9420 H6         401.6301  -420.7336  -278.2693 H6            1 RES     
    9421 H6         401.9357  -422.3813  -278.9855 H6            1 RES     
    9422 H6         399.8032  -422.0031  -280.3721 H6            1 RES     
    9423 H6         399.7696  -420.3123  -279.7664 H6            1 RES     
    9424 H6         401.8881  -421.6718  -281.5876 H6            1 RES     
    9425 H6         400.6030  -420.5085  -282.0253 H6            1 RES     
    9426 H6         401.7772  -418.7125  -280.6497 H6            1 RES     
    9427 H6         402.5572  -419.3270  -282.1271 H6            1 RES     
    9428 H6         403.3492  -420.1301  -279.2969 H6            1 RES     
    9429 H6         404.0952  -420.8185  -280.7642 H6            1 RES     
    9430 H6         405.3496  -419.0405  -279.4848 H6            1 RES     
    9431 H6         404.1390  -417.8214  -279.9571 H6            1 RES     
    9432 H6         406.2860  -417.7781  -281.2427 H6            1 RES     
    9433 H6         406.0715  -419.4807  -281.7531 H6            1 RES     
    9434 H6         405.6803  -417.8771  -283.5745 H6            1 RES     
    9435 H6         404.2169  -418.8170  -283.2672 H6            1 RES     
    9436 H6         404.7933  -415.9425  -282.2636 H6            1 RES     
    9437 H6         403.7069  -416.4008  -283.6298 H6            1 RES     
    9438 H6         403.2631  -416.8566  -281.9479 H6            1 RES     
    9439 C0         404.9568  -434.7778  -266.0582 C0            1 RES     
    9440 C1         403.6864  -433.9131  -265.9206 C1            1 RES     
    9441 C1         402.5981  -434.5450  -265.1466 C1            1 RES     
    9442 S2         401.0689  -433.9754  -265.9049 S2            1 RES     
    9443 C1         402.0095  -432.4620  -266.2031 C1            1 RES     
    9444 C1         403.3623  -432.7008  -266.3572 C1            1 RES     
    9445 C1         403.0459  -435.9291  -265.1880 C1            1 RES     
    9446 C1         404.3232  -436.1009  -265.6370 C1            1 RES     
    9447 C1         404.7418  -437.4426  -265.5821 C1            1 RES     
    9448 C1         403.7413  -438.2767  -265.0280 C1            1 RES     
    9449 S2         402.3813  -437.3407  -264.6294 S2            1 RES     
    9450 H3         404.0064  -432.0171  -266.8855 H3            1 RES     
    9451 H3         405.7154  -437.7880  -265.9067 H3            1 RES     
    9452 N4         404.7020  -440.4830  -265.5539 N4            1 RES     
    9453 C1         404.7772  -441.8443  -265.4673 C1            1 RES     
    9454 C1         403.9405  -442.5558  -264.5989 C1            1 RES     
    9455 C1         403.0336  -441.8429  -263.8248 C1            1 RES     
    9456 N4         402.1895  -442.4218  -262.9360 N4            1 RES     
    9457 S2         401.3820  -441.1196  -262.3196 S2            1 RES     
    9458 N4         402.0357  -439.8358  -263.1281 N4            1 RES     
    9459 C1         402.9526  -440.4283  -263.9380 C1            1 RES     
    9460 C1         403.8091  -439.7455  -264.8282 C1            1 RES     
    9461 H5         405.4874  -442.3824  -266.0818 H5            1 RES     
    9462 C0         406.0157  -434.3625  -264.9857 C0            1 RES     
    9463 C0         406.5649  -432.9455  -265.1794 C0            1 RES     
    9464 C0         407.4935  -432.4231  -264.0788 C0            1 RES     
    9465 C0         406.8686  -432.2957  -262.6803 C0            1 RES     
    9466 C0         405.4852  -431.6134  -262.6866 C0            1 RES     
    9467 C0         405.0198  -431.2389  -261.2742 C0            1 RES     
    9468 C0         405.6937  -429.9400  -260.8047 C0            1 RES     
    9469 C0         405.2933  -429.5823  -259.3729 C0            1 RES     
    9470 C0         405.7969  -428.1812  -259.0125 C0            1 RES     
    9471 C0         405.7347  -427.7933  -257.5216 C0            1 RES     
    9472 C0         404.3661  -427.8349  -256.8129 C0            1 RES     
    9473 C0         403.9432  -429.2504  -256.3601 C0            1 RES     
    9474 C0         402.6115  -429.3217  -255.5866 C0            1 RES     
    9475 C0         402.6407  -428.9617  -254.0816 C0            1 RES     
    9476 C0         402.9453  -427.5105  -253.6816 C0            1 RES     
    9477 C0         401.9881  -426.5059  -254.3200 C0            1 RES     
    9478 H6         405.5222  -434.4079  -263.9918 H6            1 RES     
    9479 H6         406.8581  -435.0881  -264.9727 H6            1 RES     
    9480 H6         407.1547  -432.9355  -266.0945 H6            1 RES     
    9481 H6         405.7352  -432.2224  -265.2850 H6            1 RES     
    9482 H6         408.4109  -433.0473  -264.0127 H6            1 RES     
    9483 H6         407.8038  -431.4032  -264.3991 H6            1 RES     
    9484 H6         406.7566  -433.2988  -262.2146 H6            1 RES     
    9485 H6         407.5981  -431.7245  -262.0700 H6            1 RES     
    9486 H6         405.4744  -430.7022  -263.3239 H6            1 RES     
    9487 H6         404.7602  -432.3379  -263.1157 H6            1 RES     
    9488 H6         405.2014  -432.0863  -260.5766 H6            1 RES     
    9489 H6         403.9253  -431.0433  -261.3022 H6            1 RES     
    9490 H6         406.7997  -430.0204  -260.8455 H6            1 RES     
    9491 H6         405.3747  -429.1258  -261.4940 H6            1 RES     
    9492 H6         404.1864  -429.5833  -259.3072 H6            1 RES     
    9493 H6         405.7292  -430.3441  -258.6901 H6            1 RES     
    9494 H6         406.8679  -428.0970  -259.3018 H6            1 RES     
    9495 H6         405.2249  -427.4418  -259.6168 H6            1 RES     
    9496 H6         406.4639  -428.3926  -256.9348 H6            1 RES     
    9497 H6         406.0852  -426.7372  -257.4936 H6            1 RES     
    9498 H6         403.5878  -427.3507  -257.4417 H6            1 RES     
    9499 H6         404.4971  -427.2182  -255.9156 H6            1 RES     
    9500 H6         403.7890  -429.8680  -257.2558 H6            1 RES     
    9501 H6         404.7430  -429.7343  -255.7587 H6            1 RES     
    9502 H6         402.3121  -430.3939  -255.6017 H6            1 RES     
    9503 H6         401.8195  -428.7650  -256.1303 H6            1 RES     
    9504 H6         401.6336  -429.2062  -253.6774 H6            1 RES     
    9505 H6         403.3715  -429.6245  -253.5684 H6            1 RES     
    9506 H6         402.8446  -427.4350  -252.5772 H6            1 RES     
    9507 H6         403.9939  -427.2481  -253.9043 H6            1 RES     
    9508 H6         400.9395  -426.7459  -254.0439 H6            1 RES     
    9509 H6         402.2283  -425.4848  -253.9566 H6            1 RES     
    9510 H6         402.0853  -426.5117  -255.4247 H6            1 RES     
    9511 C0         405.5420  -434.9129  -267.5245 C0            1 RES     
    9512 C0         405.5524  -433.6104  -268.3618 C0            1 RES     
    9513 C0         406.2728  -433.6420  -269.7272 C0            1 RES     
    9514 C0         407.8200  -433.5720  -269.7251 C0            1 RES     
    9515 C0         408.3618  -432.4200  -268.8534 C0            1 RES     
    9516 C0         409.8264  -432.0352  -269.1079 C0            1 RES     
    9517 C0         409.9667  -431.1355  -270.3468 C0            1 RES     
    9518 C0         411.4167  -430.6714  -270.5490 C0            1 RES     
    9519 C0         411.4950  -429.6300  -271.6732 C0            1 RES     
    9520 C0         412.9044  -429.2630  -272.1857 C0            1 RES     
    9521 C0         413.9041  -428.6013  -271.2134 C0            1 RES     
    9522 C0         414.6024  -429.5866  -270.2540 C0            1 RES     
    9523 C0         415.6775  -428.9595  -269.3409 C0            1 RES     
    9524 C0         417.0830  -428.7228  -269.9478 C0            1 RES     
    9525 C0         417.2399  -427.6648  -271.0508 C0            1 RES     
    9526 C0         416.7593  -426.2808  -270.6187 C0            1 RES     
    9527 H6         406.5613  -435.3502  -267.4521 H6            1 RES     
    9528 H6         404.9244  -435.6269  -268.1143 H6            1 RES     
    9529 H6         404.4886  -433.4009  -268.5978 H6            1 RES     
    9530 H6         405.9375  -432.7449  -267.8063 H6            1 RES     
    9531 H6         405.9254  -434.5067  -270.3324 H6            1 RES     
    9532 H6         405.9431  -432.7198  -270.2563 H6            1 RES     
    9533 H6         408.2719  -434.5276  -269.3811 H6            1 RES     
    9534 H6         408.1192  -433.4162  -270.7833 H6            1 RES     
    9535 H6         407.7402  -431.5030  -268.9543 H6            1 RES     
    9536 H6         408.3008  -432.7714  -267.8149 H6            1 RES     
    9537 H6         410.4681  -432.9417  -269.1649 H6            1 RES     
    9538 H6         410.1640  -431.4278  -268.2402 H6            1 RES     
    9539 H6         409.6169  -431.6650  -271.2577 H6            1 RES     
    9540 H6         409.3276  -430.2366  -270.1913 H6            1 RES     
    9541 H6         411.7598  -430.2003  -269.6077 H6            1 RES     
    9542 H6         412.0432  -431.5563  -270.7919 H6            1 RES     
    9543 H6         410.9533  -430.0355  -272.5562 H6            1 RES     
    9544 H6         410.9641  -428.7082  -271.3457 H6            1 RES     
    9545 H6         413.3846  -430.1461  -272.6597 H6            1 RES     
    9546 H6         412.7196  -428.5207  -272.9946 H6            1 RES     
    9547 H6         413.4173  -427.7681  -270.6614 H6            1 RES     
    9548 H6         414.6720  -428.1606  -271.8615 H6            1 RES     
    9549 H6         413.8409  -429.9923  -269.5732 H6            1 RES     
    9550 H6         415.0474  -430.4407  -270.8088 H6            1 RES     
    9551 H6         415.8561  -429.7049  -268.5337 H6            1 RES     
    9552 H6         415.2823  -428.0472  -268.8461 H6            1 RES     
    9553 H6         417.7443  -428.4143  -269.1079 H6            1 RES     
    9554 H6         417.4732  -429.6894  -270.3351 H6            1 RES     
    9555 H6         418.3210  -427.5941  -271.3008 H6            1 RES     
    9556 H6         416.7378  -427.9805  -271.9816 H6            1 RES     
    9557 H6         417.3112  -425.9476  -269.7143 H6            1 RES     
    9558 H6         416.9447  -425.5535  -271.4368 H6            1 RES     
    9559 H6         415.6717  -426.2892  -270.4015 H6            1 RES     
    9560 C0         406.0372  -447.4136  -264.2814 C0            1 RES     
    9561 C1         405.0517  -446.2267  -264.2621 C1            1 RES     
    9562 C1         403.6266  -446.6153  -264.2885 C1            1 RES     
    9563 S2         402.7903  -445.3307  -265.2310 S2            1 RES     
    9564 C1         404.0330  -444.2497  -264.4888 C1            1 RES     
    9565 C1         405.2189  -444.9091  -264.2245 C1            1 RES     
    9566 C1         403.7604  -447.9891  -264.7499 C1            1 RES     
    9567 C1         405.0357  -448.4749  -264.7286 C1            1 RES     
    9568 C1         405.1067  -449.8289  -265.1029 C1            1 RES     
    9569 C1         403.8226  -450.3635  -265.3654 C1            1 RES     
    9570 S2         402.6495  -449.1577  -265.1326 S2            1 RES     
    9571 H3         406.1562  -444.3849  -264.1349 H3            1 RES     
    9572 H3         406.0286  -450.3939  -265.1636 H3            1 RES     
    9573 N4         404.4674  -452.5079  -266.3914 N4            1 RES     
    9574 C1         404.2254  -453.7632  -266.8731 C1            1 RES     
    9575 C1         402.9551  -454.3418  -266.7634 C1            1 RES     
    9576 C1         401.9470  -453.6090  -266.1497 C1            1 RES     
    9577 N4         400.6865  -454.0738  -265.9693 N4            1 RES     
    9578 S2         399.9537  -452.8104  -265.1983 S2            1 RES     
    9579 N4         401.1500  -451.6771  -265.0810 N4            1 RES     
    9580 C1         402.2071  -452.2967  -265.6693 C1            1 RES     
    9581 C1         403.4993  -451.7443  -265.8020 C1            1 RES     
    9582 H5         405.0227  -454.3168  -267.3520 H5            1 RES     
    9583 C0         406.5122  -447.7492  -262.8302 C0            1 RES     
    9584 C0         407.3510  -446.6412  -262.1855 C0            1 RES     
    9585 C0         407.7218  -446.8428  -260.7129 C0            1 RES     
    9586 C0         406.5429  -446.9138  -259.7294 C0            1 RES     
    9587 C0         405.4938  -445.8044  -259.9483 C0            1 RES     
    9588 C0         404.4929  -445.7195  -258.7897 C0            1 RES     
    9589 C0         405.0984  -444.9565  -257.6010 C0            1 RES     
    9590 C0         404.1406  -444.9160  -256.4096 C0            1 RES     
    9591 C0         404.6723  -443.9685  -255.3298 C0            1 RES     
    9592 C0         403.9818  -444.0421  -253.9533 C0            1 RES     
    9593 C0         402.4627  -443.7878  -253.8841 C0            1 RES     
    9594 C0         401.6085  -445.0169  -254.2677 C0            1 RES     
    9595 C0         400.0842  -444.8215  -254.1440 C0            1 RES     
    9596 C0         399.4597  -444.9573  -252.7344 C0            1 RES     
    9597 C0         399.8119  -443.9045  -251.6730 C0            1 RES     
    9598 C0         399.4928  -442.4798  -252.1220 C0            1 RES     
    9599 H6         405.6055  -447.9017  -262.2073 H6            1 RES     
    9600 H6         407.0863  -448.7014  -262.8216 H6            1 RES     
    9601 H6         408.2956  -446.5783  -262.7232 H6            1 RES     
    9602 H6         406.8316  -445.6685  -262.2671 H6            1 RES     
    9603 H6         408.3545  -447.7484  -260.5898 H6            1 RES     
    9604 H6         408.3393  -445.9609  -260.4296 H6            1 RES     
    9605 H6         406.0290  -447.8960  -259.8129 H6            1 RES     
    9606 H6         406.9871  -446.8554  -258.7144 H6            1 RES     
    9607 H6         405.9666  -444.8080  -260.0908 H6            1 RES     
    9608 H6         404.9370  -446.0532  -260.8771 H6            1 RES     
    9609 H6         404.1500  -446.7396  -258.5077 H6            1 RES     
    9610 H6         403.6069  -445.1389  -259.1288 H6            1 RES     
    9611 H6         406.0495  -445.4193  -257.2654 H6            1 RES     
    9612 H6         405.3132  -443.9181  -257.9404 H6            1 RES     
    9613 H6         403.1609  -444.5321  -256.7597 H6            1 RES     
    9614 H6         404.0391  -445.9489  -256.0106 H6            1 RES     
    9615 H6         405.7443  -444.1999  -255.1424 H6            1 RES     
    9616 H6         404.6152  -442.9287  -255.7231 H6            1 RES     
    9617 H6         404.2091  -445.0104  -253.4573 H6            1 RES     
    9618 H6         404.4741  -443.2456  -253.3516 H6            1 RES     
    9619 H6         402.1910  -442.8910  -254.4818 H6            1 RES     
    9620 H6         402.2659  -443.5552  -252.8306 H6            1 RES     
    9621 H6         401.7844  -445.2424  -255.3287 H6            1 RES     
    9622 H6         401.9118  -445.9134  -253.6846 H6            1 RES     
    9623 H6         399.6263  -445.6547  -254.7232 H6            1 RES     
    9624 H6         399.7742  -443.8806  -254.6455 H6            1 RES     
    9625 H6         398.3564  -444.9245  -252.8718 H6            1 RES     
    9626 H6         399.7113  -445.9605  -252.3258 H6            1 RES     
    9627 H6         399.2124  -444.1262  -250.7637 H6            1 RES     
    9628 H6         400.8675  -443.9900  -251.3627 H6            1 RES     
    9629 H6         398.4160  -442.3903  -252.3786 H6            1 RES     
    9630 H6         399.7236  -441.7727  -251.2978 H6            1 RES     
    9631 H6         400.1031  -442.1952  -253.0031 H6            1 RES     
    9632 C0         407.2132  -447.3149  -265.3389 C0            1 RES     
    9633 C0         407.8759  -445.9218  -265.4721 C0            1 RES     
    9634 C0         409.1395  -445.8108  -266.3526 C0            1 RES     
    9635 C0         410.4773  -446.3144  -265.7563 C0            1 RES     
    9636 C0         410.7489  -445.7514  -264.3457 C0            1 RES     
    9637 C0         412.1998  -445.8712  -263.8576 C0            1 RES     
    9638 C0         413.0874  -444.7631  -264.4477 C0            1 RES     
    9639 C0         414.5163  -444.8231  -263.8878 C0            1 RES     
    9640 C0         415.3235  -443.6009  -264.3452 C0            1 RES     
    9641 C0         416.8471  -443.6404  -264.0984 C0            1 RES     
    9642 C0         417.3672  -443.7072  -262.6466 C0            1 RES     
    9643 C0         417.3148  -445.1148  -262.0182 C0            1 RES     
    9644 C0         417.9211  -445.2223  -260.6027 C0            1 RES     
    9645 C0         419.4612  -445.3477  -260.4910 C0            1 RES     
    9646 C0         420.3288  -444.1457  -260.8950 C0            1 RES     
    9647 C0         419.9800  -442.8752  -260.1224 C0            1 RES     
    9648 H6         407.9664  -448.0945  -265.0935 H6            1 RES     
    9649 H6         406.8272  -447.5464  -266.3570 H6            1 RES     
    9650 H6         407.1184  -445.2789  -265.9662 H6            1 RES     
    9651 H6         408.1086  -445.4616  -264.5026 H6            1 RES     
    9652 H6         408.9631  -446.2694  -267.3491 H6            1 RES     
    9653 H6         409.2896  -444.7201  -266.5172 H6            1 RES     
    9654 H6         410.5139  -447.4246  -265.7145 H6            1 RES     
    9655 H6         411.2698  -445.9745  -266.4563 H6            1 RES     
    9656 H6         410.4432  -444.6849  -264.2648 H6            1 RES     
    9657 H6         410.1317  -446.3452  -263.6586 H6            1 RES     
    9658 H6         412.6002  -446.8893  -264.0574 H6            1 RES     
    9659 H6         412.1923  -445.7135  -262.7572 H6            1 RES     
    9660 H6         413.1202  -444.8349  -265.5551 H6            1 RES     
    9661 H6         412.6407  -443.7817  -264.1688 H6            1 RES     
    9662 H6         414.4518  -444.8093  -262.7827 H6            1 RES     
    9663 H6         414.9967  -445.7618  -264.2377 H6            1 RES     
    9664 H6         415.2028  -443.5014  -265.4466 H6            1 RES     
    9665 H6         414.8917  -442.6893  -263.8747 H6            1 RES     
    9666 H6         417.3131  -444.4561  -264.6922 H6            1 RES     
    9667 H6         417.2200  -442.6792  -264.5184 H6            1 RES     
    9668 H6         416.8486  -442.9561  -262.0120 H6            1 RES     
    9669 H6         418.4205  -443.4076  -262.7146 H6            1 RES     
    9670 H6         416.2582  -445.3956  -261.9059 H6            1 RES     
    9671 H6         417.7949  -445.8683  -262.6794 H6            1 RES     
    9672 H6         417.5431  -446.1835  -260.1877 H6            1 RES     
    9673 H6         417.5238  -444.4179  -259.9483 H6            1 RES     
    9674 H6         419.6860  -445.5638  -259.4231 H6            1 RES     
    9675 H6         419.7923  -446.2298  -261.0815 H6            1 RES     
    9676 H6         421.3881  -444.4043  -260.6772 H6            1 RES     
    9677 H6         420.2823  -443.9673  -261.9833 H6            1 RES     
    9678 H6         420.0852  -443.0486  -259.0304 H6            1 RES     
    9679 H6         420.6715  -442.0596  -260.4214 H6            1 RES     
    9680 H6         418.9431  -442.5495  -260.3431 H6            1 RES     
    9681 C0         403.6535  -459.4912  -267.8083 C0            1 RES     
    9682 C1         403.0313  -458.0888  -267.6456 C1            1 RES     
    9683 C1         401.7477  -457.9040  -268.3533 C1            1 RES     
    9684 S2         401.7320  -456.1866  -268.8903 S2            1 RES     
    9685 C1         402.6520  -455.9041  -267.3613 C1            1 RES     
    9686 C1         403.4129  -456.9972  -266.9912 C1            1 RES     
    9687 C1         401.8155  -459.0303  -269.2724 C1            1 RES     
    9688 C1         402.8029  -459.9312  -268.9967 C1            1 RES     
    9689 C1         402.7792  -461.0428  -269.8582 C1            1 RES     
    9690 C1         401.7008  -460.9689  -270.7722 C1            1 RES     
    9691 S2         400.8195  -459.5442  -270.4931 S2            1 RES     
    9692 H3         404.2749  -456.9028  -266.3513 H3            1 RES     
    9693 H3         403.4878  -461.8605  -269.8130 H3            1 RES     
    9694 N4         402.3261  -462.7962  -272.3008 N4            1 RES     
    9695 C1         402.1049  -463.6748  -273.3234 C1            1 RES     
    9696 C1         400.8518  -463.7543  -273.9431 C1            1 RES     
    9697 C1         399.8376  -462.9198  -273.4905 C1            1 RES     
    9698 N4         398.5814  -462.9232  -273.9996 N4            1 RES     
    9699 S2         397.8310  -461.7668  -273.0899 S2            1 RES     
    9700 N4         399.0201  -461.2372  -272.0727 N4            1 RES     
    9701 C1         400.0862  -461.9971  -272.4381 C1            1 RES     
    9702 C1         401.3639  -461.9418  -271.8406 C1            1 RES     
    9703 H5         402.9089  -464.3138  -273.6649 H5            1 RES     
    9704 C0         403.3012  -460.3882  -266.5773 C0            1 RES     
    9705 C0         403.9270  -459.9056  -265.2649 C0            1 RES     
    9706 C0         403.5014  -460.6526  -263.9970 C0            1 RES     
    9707 C0         402.0076  -460.5745  -263.6437 C0            1 RES     
    9708 C0         401.4297  -459.1472  -263.7344 C0            1 RES     
    9709 C0         400.0350  -459.0479  -263.1046 C0            1 RES     
    9710 C0         400.1339  -458.9451  -261.5745 C0            1 RES     
    9711 C0         398.7518  -458.9103  -260.9209 C0            1 RES     
    9712 C0         398.8755  -458.5855  -259.4290 C0            1 RES     
    9713 C0         397.6116  -458.8037  -258.5734 C0            1 RES     
    9714 C0         396.3269  -458.0449  -258.9619 C0            1 RES     
    9715 C0         395.5395  -458.7057  -260.1156 C0            1 RES     
    9716 C0         394.2129  -458.0130  -260.4861 C0            1 RES     
    9717 C0         392.9777  -458.3200  -259.6055 C0            1 RES     
    9718 C0         392.9768  -457.8312  -258.1495 C0            1 RES     
    9719 C0         393.1955  -456.3242  -258.0295 C0            1 RES     
    9720 H6         402.1971  -460.3753  -266.4578 H6            1 RES     
    9721 H6         403.6034  -461.4413  -266.7669 H6            1 RES     
    9722 H6         405.0054  -460.0366  -265.3382 H6            1 RES     
    9723 H6         403.7106  -458.8329  -265.1070 H6            1 RES     
    9724 H6         403.8081  -461.7197  -264.0507 H6            1 RES     
    9725 H6         404.0664  -460.1826  -263.1609 H6            1 RES     
    9726 H6         401.4162  -461.2298  -264.3195 H6            1 RES     
    9727 H6         401.9142  -460.9838  -262.6167 H6            1 RES     
    9728 H6         402.0968  -458.3978  -263.2546 H6            1 RES     
    9729 H6         401.3485  -458.8903  -264.8123 H6            1 RES     
    9730 H6         399.4080  -459.9067  -263.4318 H6            1 RES     
    9731 H6         399.5514  -458.1119  -263.4609 H6            1 RES     
    9732 H6         400.6980  -459.7998  -261.1472 H6            1 RES     
    9733 H6         400.6822  -458.0064  -261.3338 H6            1 RES     
    9734 H6         398.1549  -458.1106  -261.4043 H6            1 RES     
    9735 H6         398.2731  -459.9031  -261.0684 H6            1 RES     
    9736 H6         399.6589  -459.2365  -258.9814 H6            1 RES     
    9737 H6         399.2170  -457.5306  -259.3317 H6            1 RES     
    9738 H6         397.3807  -459.8879  -258.4931 H6            1 RES     
    9739 H6         397.9007  -458.4571  -257.5559 H6            1 RES     
    9740 H6         396.5546  -456.9777  -259.1731 H6            1 RES     
    9741 H6         395.7000  -458.0778  -258.0628 H6            1 RES     
    9742 H6         396.1535  -458.6567  -261.0256 H6            1 RES     
    9743 H6         395.3460  -459.7798  -259.9049 H6            1 RES     
    9744 H6         393.9355  -458.4112  -261.4880 H6            1 RES     
    9745 H6         394.3703  -456.9212  -260.6127 H6            1 RES     
    9746 H6         392.1048  -457.8478  -260.1079 H6            1 RES     
    9747 H6         392.8025  -459.4182  -259.6037 H6            1 RES     
    9748 H6         391.9855  -458.0758  -257.7104 H6            1 RES     
    9749 H6         393.7159  -458.3835  -257.5439 H6            1 RES     
    9750 H6         392.4134  -455.7765  -258.5966 H6            1 RES     
    9751 H6         393.1368  -456.0266  -256.9616 H6            1 RES     
    9752 H6         394.1948  -456.0363  -258.4146 H6            1 RES     
    9753 C0         405.1855  -459.5220  -268.2121 C0            1 RES     
    9754 C0         406.0880  -458.4943  -267.4860 C0            1 RES     
    9755 C0         407.6128  -458.5983  -267.7061 C0            1 RES     
    9756 C0         408.3755  -459.7071  -266.9394 C0            1 RES     
    9757 C0         408.0432  -459.7242  -265.4327 C0            1 RES     
    9758 C0         409.0292  -460.5035  -264.5505 C0            1 RES     
    9759 C0         410.2873  -459.6751  -264.2420 C0            1 RES     
    9760 C0         411.2317  -460.4145  -263.2829 C0            1 RES     
    9761 C0         412.3796  -459.4951  -262.8453 C0            1 RES     
    9762 C0         413.5588  -460.1589  -262.1018 C0            1 RES     
    9763 C0         413.2972  -460.8351  -260.7391 C0            1 RES     
    9764 C0         412.6779  -462.2442  -260.8389 C0            1 RES     
    9765 C0         412.4995  -462.9772  -259.4922 C0            1 RES     
    9766 C0         413.7407  -463.6831  -258.8912 C0            1 RES     
    9767 C0         414.9109  -462.8193  -258.3960 C0            1 RES     
    9768 C0         414.4901  -461.7973  -257.3418 C0            1 RES     
    9769 H6         405.5615  -460.5578  -268.0668 H6            1 RES     
    9770 H6         405.2966  -459.2858  -269.2942 H6            1 RES     
    9771 H6         405.8005  -457.5045  -267.8971 H6            1 RES     
    9772 H6         405.9134  -458.4582  -266.4025 H6            1 RES     
    9773 H6         407.8488  -458.6456  -268.7908 H6            1 RES     
    9774 H6         408.0323  -457.6414  -267.3222 H6            1 RES     
    9775 H6         408.1706  -460.7132  -267.3651 H6            1 RES     
    9776 H6         409.4550  -459.4901  -267.0844 H6            1 RES     
    9777 H6         407.9503  -458.6945  -265.0223 H6            1 RES     
    9778 H6         407.0705  -460.2257  -265.3427 H6            1 RES     
    9779 H6         409.2694  -461.4900  -265.0041 H6            1 RES     
    9780 H6         408.5274  -460.6854  -263.5753 H6            1 RES     
    9781 H6         410.8307  -459.4244  -265.1770 H6            1 RES     
    9782 H6         409.9623  -458.7273  -263.7555 H6            1 RES     
    9783 H6         410.6507  -460.7042  -262.3860 H6            1 RES     
    9784 H6         411.6277  -461.3160  -263.7976 H6            1 RES     
    9785 H6         412.8221  -459.0389  -263.7582 H6            1 RES     
    9786 H6         411.9622  -458.6709  -262.2245 H6            1 RES     
    9787 H6         414.0830  -460.8746  -262.7712 H6            1 RES     
    9788 H6         414.2661  -459.3224  -261.9032 H6            1 RES     
    9789 H6         412.6958  -460.1693  -260.0829 H6            1 RES     
    9790 H6         414.2902  -460.9350  -260.2832 H6            1 RES     
    9791 H6         411.6646  -462.1396  -261.2514 H6            1 RES     
    9792 H6         413.2585  -462.8903  -261.5323 H6            1 RES     
    9793 H6         411.7902  -463.8104  -259.6968 H6            1 RES     
    9794 H6         412.0029  -462.3144  -258.7524 H6            1 RES     
    9795 H6         413.3807  -464.2705  -258.0176 H6            1 RES     
    9796 H6         414.1350  -464.4092  -259.6354 H6            1 RES     
    9797 H6         415.6637  -463.4986  -257.9396 H6            1 RES     
    9798 H6         415.4261  -462.3244  -259.2374 H6            1 RES     
    9799 H6         414.0243  -462.3104  -256.4738 H6            1 RES     
    9800 H6         415.3840  -461.2414  -256.9890 H6            1 RES     
    9801 H6         413.7709  -461.0661  -257.7640 H6            1 RES     
    9802 C0         400.9472  -468.2496  -276.7500 C0            1 RES     
    9803 C1         400.6095  -466.8317  -276.2440 C1            1 RES     
    9804 C1         399.8844  -465.9916  -277.2193 C1            1 RES     
    9805 S2         400.4621  -464.3110  -276.9366 S2            1 RES     
    9806 C1         400.5740  -464.8474  -275.2151 C1            1 RES     
    9807 C1         400.8360  -466.1996  -275.0975 C1            1 RES     
    9808 C1         400.1627  -466.7405  -278.4357 C1            1 RES     
    9809 C1         400.7012  -467.9779  -278.2316 C1            1 RES     
    9810 C1         400.8764  -468.6973  -279.4274 C1            1 RES     
    9811 C1         400.4041  -467.9693  -280.5458 C1            1 RES     
    9812 S2         399.7932  -466.4714  -280.0286 S2            1 RES     
    9813 H3         401.2867  -466.6193  -274.2132 H3            1 RES     
    9814 H3         401.3025  -469.6915  -279.4804 H3            1 RES     
    9815 N4         401.3149  -469.3614  -282.3622 N4            1 RES     
    9816 C1         401.4432  -469.7555  -283.6640 C1            1 RES     
    9817 C1         400.6509  -469.1859  -284.6680 C1            1 RES     
    9818 C1         399.7283  -468.2118  -284.3075 C1            1 RES     
    9819 N4         398.8950  -467.6063  -285.1887 N4            1 RES     
    9820 S2         398.0426  -466.5789  -284.2164 S2            1 RES     
    9821 N4         398.6778  -466.8447  -282.7147 N4            1 RES     
    9822 C1         399.6176  -467.7975  -282.9523 C1            1 RES     
    9823 C1         400.4370  -468.3910  -281.9680 C1            1 RES     
    9824 H5         402.1708  -470.5129  -283.9258 H5            1 RES     
    9825 C0         399.8823  -469.2756  -276.2426 C0            1 RES     
    9826 C0         399.8848  -469.4643  -274.7224 C0            1 RES     
    9827 C0         398.7687  -470.3419  -274.1473 C0            1 RES     
    9828 C0         397.3356  -469.8316  -274.3667 C0            1 RES     
    9829 C0         397.1619  -468.3333  -274.0436 C0            1 RES     
    9830 C0         395.6856  -467.9219  -273.9891 C0            1 RES     
    9831 C0         395.0587  -468.3176  -272.6430 C0            1 RES     
    9832 C0         393.5693  -467.9748  -272.5917 C0            1 RES     
    9833 C0         393.0252  -468.1723  -271.1735 C0            1 RES     
    9834 C0         391.4912  -468.1555  -271.0198 C0            1 RES     
    9835 C0         390.7244  -466.9019  -271.4864 C0            1 RES     
    9836 C0         390.4729  -466.8584  -273.0103 C0            1 RES     
    9837 C0         389.6487  -465.6533  -273.5055 C0            1 RES     
    9838 C0         388.1100  -465.7328  -273.3586 C0            1 RES     
    9839 C0         387.5083  -465.7293  -271.9455 C0            1 RES     
    9840 C0         387.9315  -464.5135  -271.1235 C0            1 RES     
    9841 H6         398.8821  -468.8964  -276.5412 H6            1 RES     
    9842 H6         400.0269  -470.2602  -276.7386 H6            1 RES     
    9843 H6         400.8180  -469.9521  -274.4454 H6            1 RES     
    9844 H6         399.8327  -468.4844  -274.2130 H6            1 RES     
    9845 H6         398.8493  -471.3805  -274.5350 H6            1 RES     
    9846 H6         398.9444  -470.3792  -273.0486 H6            1 RES     
    9847 H6         397.0247  -469.9955  -275.4213 H6            1 RES     
    9848 H6         396.6849  -470.4614  -273.7257 H6            1 RES     
    9849 H6         397.6496  -468.0563  -273.0834 H6            1 RES     
    9850 H6         397.6577  -467.7594  -274.8556 H6            1 RES     
    9851 H6         395.1378  -468.3552  -274.8551 H6            1 RES     
    9852 H6         395.6239  -466.8137  -274.0611 H6            1 RES     
    9853 H6         395.1712  -469.4043  -272.4483 H6            1 RES     
    9854 H6         395.5960  -467.7596  -271.8432 H6            1 RES     
    9855 H6         393.4448  -466.9083  -272.8684 H6            1 RES     
    9856 H6         393.0366  -468.6334  -273.3121 H6            1 RES     
    9857 H6         393.3555  -469.1650  -270.7949 H6            1 RES     
    9858 H6         393.4765  -467.3939  -270.5181 H6            1 RES     
    9859 H6         391.0440  -469.0524  -271.5002 H6            1 RES     
    9860 H6         391.3198  -468.2545  -269.9244 H6            1 RES     
    9861 H6         391.2280  -465.9803  -271.1226 H6            1 RES     
    9862 H6         389.7511  -466.9668  -270.9852 H6            1 RES     
    9863 H6         391.4434  -466.7715  -273.5184 H6            1 RES     
    9864 H6         389.9973  -467.7985  -273.3649 H6            1 RES     
    9865 H6         389.8126  -465.6087  -274.6058 H6            1 RES     
    9866 H6         390.0565  -464.7092  -273.0870 H6            1 RES     
    9867 H6         387.6945  -464.8491  -273.8914 H6            1 RES     
    9868 H6         387.7453  -466.6392  -273.8896 H6            1 RES     
    9869 H6         386.4017  -465.7128  -272.0483 H6            1 RES     
    9870 H6         387.7442  -466.6652  -271.4103 H6            1 RES     
    9871 H6         387.6394  -463.5773  -271.6444 H6            1 RES     
    9872 H6         387.4287  -464.5436  -270.1342 H6            1 RES     
    9873 H6         389.0276  -464.5107  -270.9545 H6            1 RES     
    9874 C0         402.4463  -468.7172  -276.5382 C0            1 RES     
    9875 C0         403.0722  -468.3528  -275.1696 C0            1 RES     
    9876 C0         404.4631  -468.9365  -274.8396 C0            1 RES     
    9877 C0         404.5340  -470.4199  -274.3998 C0            1 RES     
    9878 C0         403.5257  -470.7573  -273.2817 C0            1 RES     
    9879 C0         403.7967  -472.0653  -272.5243 C0            1 RES     
    9880 C0         404.8880  -471.8837  -271.4564 C0            1 RES     
    9881 C0         405.0944  -473.1640  -270.6336 C0            1 RES     
    9882 C0         406.0473  -472.8998  -269.4603 C0            1 RES     
    9883 C0         406.5726  -474.1355  -268.6979 C0            1 RES     
    9884 C0         405.5654  -475.0384  -267.9543 C0            1 RES     
    9885 C0         404.8084  -476.0275  -268.8641 C0            1 RES     
    9886 C0         403.8691  -477.0062  -268.1276 C0            1 RES     
    9887 C0         404.5075  -478.2597  -267.4785 C0            1 RES     
    9888 C0         405.4411  -478.0698  -266.2731 C0            1 RES     
    9889 C0         404.7756  -477.3239  -265.1182 C0            1 RES     
    9890 H6         402.4973  -469.8121  -276.7227 H6            1 RES     
    9891 H6         403.1048  -468.2306  -277.2923 H6            1 RES     
    9892 H6         403.2152  -467.2527  -275.1922 H6            1 RES     
    9893 H6         402.4117  -468.5761  -274.3212 H6            1 RES     
    9894 H6         405.1747  -468.7451  -275.6712 H6            1 RES     
    9895 H6         404.8252  -468.3575  -273.9605 H6            1 RES     
    9896 H6         404.3662  -471.1085  -275.2562 H6            1 RES     
    9897 H6         405.5701  -470.5797  -274.0333 H6            1 RES     
    9898 H6         403.4504  -469.9348  -272.5366 H6            1 RES     
    9899 H6         402.5520  -470.8716  -273.7761 H6            1 RES     
    9900 H6         404.0273  -472.8908  -273.2329 H6            1 RES     
    9901 H6         402.8653  -472.3298  -271.9781 H6            1 RES     
    9902 H6         405.8493  -471.5855  -271.9249 H6            1 RES     
    9903 H6         404.5615  -471.0713  -270.7680 H6            1 RES     
    9904 H6         404.1117  -473.4717  -270.2270 H6            1 RES     
    9905 H6         405.5042  -473.9532  -271.2996 H6            1 RES     
    9906 H6         406.9516  -472.3897  -269.8595 H6            1 RES     
    9907 H6         405.5535  -472.2022  -268.7472 H6            1 RES     
    9908 H6         407.2023  -474.7619  -269.3659 H6            1 RES     
    9909 H6         407.2462  -473.7134  -267.9186 H6            1 RES     
    9910 H6         404.8661  -474.4240  -267.3466 H6            1 RES     
    9911 H6         406.1784  -475.6234  -267.2573 H6            1 RES     
    9912 H6         404.1581  -475.4436  -269.5306 H6            1 RES     
    9913 H6         405.5115  -476.6059  -269.5017 H6            1 RES     
    9914 H6         403.1973  -477.4228  -268.9112 H6            1 RES     
    9915 H6         403.2191  -476.4573  -267.4138 H6            1 RES     
    9916 H6         403.6671  -478.9042  -267.1376 H6            1 RES     
    9917 H6         405.0595  -478.8258  -268.2602 H6            1 RES     
    9918 H6         405.7354  -479.0789  -265.9105 H6            1 RES     
    9919 H6         406.3809  -477.5730  -266.5701 H6            1 RES     
    9920 H6         403.8618  -477.8625  -264.7889 H6            1 RES     
    9921 H6         405.4807  -477.2631  -264.2628 H6            1 RES     
    9922 H6         404.5038  -476.2912  -265.4180 H6            1 RES     
    9923 C0         401.1994  -472.3646  -288.8740 C0            1 RES     
    9924 C1         400.9443  -471.1380  -287.9736 C1            1 RES     
    9925 C1         400.9531  -469.8442  -288.6868 C1            1 RES     
    9926 S2         401.6399  -468.6540  -287.5250 S2            1 RES     
    9927 C1         400.8083  -469.6754  -286.2884 C1            1 RES     
    9928 C1         400.7132  -470.9999  -286.6725 C1            1 RES     
    9929 C1         401.6273  -470.2491  -289.9113 C1            1 RES     
    9930 C1         401.7500  -471.5986  -290.0738 C1            1 RES     
    9931 C1         402.3317  -471.9460  -291.3065 C1            1 RES     
    9932 C1         402.6036  -470.8013  -292.0936 C1            1 RES     
    9933 S2         402.1247  -469.4076  -291.2495 S2            1 RES     
    9934 H3         400.5947  -471.7955  -285.9553 H3            1 RES     
    9935 H3         402.5285  -472.9640  -291.6189 H3            1 RES     
    9936 N4         403.9811  -471.8286  -293.8583 N4            1 RES     
    9937 C1         404.6367  -471.8402  -295.0569 C1            1 RES     
    9938 C1         404.5489  -470.7523  -295.9338 C1            1 RES     
    9939 C1         403.7760  -469.6613  -295.5566 C1            1 RES     
    9940 N4         403.6015  -468.5629  -296.3315 N4            1 RES     
    9941 S2         402.6066  -467.6306  -295.3996 S2            1 RES     
    9942 N4         402.3809  -468.5393  -294.0386 N4            1 RES     
    9943 C1         403.1140  -469.6540  -294.2987 C1            1 RES     
    9944 C1         403.2297  -470.7671  -293.4384 C1            1 RES     
    9945 H5         405.2375  -472.6977  -295.3312 H5            1 RES     
    9946 C0         399.8452  -473.0314  -289.2806 C0            1 RES     
    9947 C0         399.0837  -473.6466  -288.1021 C0            1 RES     
    9948 C0         397.6820  -474.1835  -288.4080 C0            1 RES     
    9949 C0         396.6589  -473.1450  -288.8949 C0            1 RES     
    9950 C0         396.6472  -471.8534  -288.0516 C0            1 RES     
    9951 C0         395.4369  -470.9671  -288.3698 C0            1 RES     
    9952 C0         394.1794  -471.4841  -287.6535 C0            1 RES     
    9953 C0         392.9460  -470.6527  -288.0083 C0            1 RES     
    9954 C0         391.7634  -471.0460  -287.1176 C0            1 RES     
    9955 C0         390.3794  -470.5164  -287.5431 C0            1 RES     
    9956 C0         390.1897  -468.9920  -287.6742 C0            1 RES     
    9957 C0         390.7114  -468.4131  -289.0084 C0            1 RES     
    9958 C0         390.4768  -466.9020  -289.2048 C0            1 RES     
    9959 C0         389.0733  -466.4537  -289.6786 C0            1 RES     
    9960 C0         387.8830  -466.6470  -288.7274 C0            1 RES     
    9961 C0         388.0892  -465.9698  -287.3740 C0            1 RES     
    9962 H6         399.2050  -472.2434  -289.7309 H6            1 RES     
    9963 H6         400.0144  -473.8078  -290.0584 H6            1 RES     
    9964 H6         399.6556  -474.4996  -287.7405 H6            1 RES     
    9965 H6         398.9863  -472.9120  -287.2815 H6            1 RES     
    9966 H6         397.7343  -475.0161  -289.1426 H6            1 RES     
    9967 H6         397.3000  -474.6040  -287.4507 H6            1 RES     
    9968 H6         396.8648  -472.8658  -289.9510 H6            1 RES     
    9969 H6         395.6725  -473.6524  -288.8706 H6            1 RES     
    9970 H6         396.6598  -472.0695  -286.9609 H6            1 RES     
    9971 H6         397.5718  -471.2885  -288.2978 H6            1 RES     
    9972 H6         395.2974  -470.8949  -289.4712 H6            1 RES     
    9973 H6         395.6342  -469.9447  -287.9790 H6            1 RES     
    9974 H6         393.9711  -472.5423  -287.9150 H6            1 RES     
    9975 H6         394.3658  -471.4229  -286.5575 H6            1 RES     
    9976 H6         393.1792  -469.5839  -287.8276 H6            1 RES     
    9977 H6         392.7060  -470.8278  -289.0799 H6            1 RES     
    9978 H6         391.6722  -472.1548  -287.1073 H6            1 RES     
    9979 H6         391.9882  -470.7162  -286.0784 H6            1 RES     
    9980 H6         390.0515  -471.0038  -288.4865 H6            1 RES     
    9981 H6         389.6897  -470.8637  -286.7414 H6            1 RES     
    9982 H6         390.6266  -468.4689  -286.7961 H6            1 RES     
    9983 H6         389.1039  -468.8415  -287.6422 H6            1 RES     
    9984 H6         391.8024  -468.5410  -289.0375 H6            1 RES     
    9985 H6         390.2906  -468.9653  -289.8765 H6            1 RES     
    9986 H6         391.1519  -466.5986  -290.0364 H6            1 RES     
    9987 H6         390.8098  -466.3403  -288.3067 H6            1 RES     
    9988 H6         389.1441  -465.3647  -289.8941 H6            1 RES     
    9989 H6         388.8384  -466.9649  -290.6379 H6            1 RES     
    9990 H6         386.9876  -466.1982  -289.2093 H6            1 RES     
    9991 H6         387.6471  -467.7173  -288.5978 H6            1 RES     
    9992 H6         388.2703  -464.8829  -287.5122 H6            1 RES     
    9993 H6         387.1796  -466.1040  -286.7517 H6            1 RES     
    9994 H6         388.9477  -466.4171  -286.8329 H6            1 RES     
    9995 C0         402.2911  -473.3872  -288.3512 C0            1 RES     
    9996 C0         402.2438  -473.6968  -286.8347 C0            1 RES     
    9997 C0         403.1637  -474.8173  -286.3031 C0            1 RES     
    9998 C0         402.7254  -476.2828  -286.5463 C0            1 RES     
    9999 C0         401.2616  -476.5419  -286.1330 C0            1 RES     
   10000 C0         400.8770  -478.0190  -285.9654 C0            1 RES     
   10001 C0         401.3364  -478.5714  -284.6060 C0            1 RES     
   10002 C0         400.8706  -480.0197  -284.3960 C0            1 RES     
   10003 C0         401.1772  -480.4797  -282.9647 C0            1 RES     
   10004 C0         401.0221  -481.9873  -282.6693 C0            1 RES     
   10005 C0         399.6282  -482.6360  -282.8069 C0            1 RES     
   10006 C0         399.2223  -482.9653  -284.2580 C0            1 RES     
   10007 C0         397.8752  -483.7037  -284.4089 C0            1 RES     
   10008 C0         397.8676  -485.2349  -284.1736 C0            1 RES     
   10009 C0         398.1278  -485.7629  -282.7545 C0            1 RES     
   10010 C0         397.1510  -485.2011  -281.7234 C0            1 RES     
   10011 H6         402.2099  -474.3186  -288.9524 H6            1 RES     
   10012 H6         403.3104  -472.9759  -288.5273 H6            1 RES     
   10013 H6         402.5912  -472.7707  -286.3319 H6            1 RES     
   10014 H6         401.2290  -473.9027  -286.4691 H6            1 RES     
   10015 H6         404.2079  -474.6632  -286.6499 H6            1 RES     
   10016 H6         403.1662  -474.6969  -285.1965 H6            1 RES     
   10017 H6         402.8571  -476.5776  -287.6100 H6            1 RES     
   10018 H6         403.4064  -476.9101  -285.9330 H6            1 RES     
   10019 H6         401.0009  -476.0073  -285.1929 H6            1 RES     
   10020 H6         400.6418  -476.1418  -286.9462 H6            1 RES     
   10021 H6         401.2525  -478.6236  -286.8198 H6            1 RES     
   10022 H6         399.7666  -478.0734  -285.9662 H6            1 RES     
   10023 H6         402.4417  -478.5210  -284.5156 H6            1 RES     
   10024 H6         400.8859  -477.9373  -283.8089 H6            1 RES     
   10025 H6         399.7746  -480.0525  -284.5496 H6            1 RES     
   10026 H6         401.3864  -480.6703  -285.1344 H6            1 RES     
   10027 H6         402.2419  -480.2417  -282.7474 H6            1 RES     
   10028 H6         400.5491  -479.8933  -282.2572 H6            1 RES     
   10029 H6         401.7588  -482.5738  -283.2596 H6            1 RES     
   10030 H6         401.3086  -482.0898  -281.5985 H6            1 RES     
   10031 H6         398.8584  -482.0169  -282.2970 H6            1 RES     
   10032 H6         399.7061  -483.5816  -282.2559 H6            1 RES     
   10033 H6         399.0976  -482.0160  -284.7977 H6            1 RES     
   10034 H6         400.0167  -483.5452  -284.7758 H6            1 RES     
   10035 H6         397.5933  -483.5957  -285.4803 H6            1 RES     
   10036 H6         397.0840  -483.1917  -283.8213 H6            1 RES     
   10037 H6         396.8594  -485.5977  -284.4733 H6            1 RES     
   10038 H6         398.6040  -485.7063  -284.8606 H6            1 RES     
   10039 H6         398.0101  -486.8683  -282.7776 H6            1 RES     
   10040 H6         399.1715  -485.5798  -282.4453 H6            1 RES     
   10041 H6         396.1060  -485.4402  -282.0142 H6            1 RES     
   10042 H6         397.3577  -485.6567  -280.7323 H6            1 RES     
   10043 H6         397.2625  -484.1016  -281.6301 H6            1 RES     
   10044 C0         406.4109  -472.5218  -300.5704 C0            1 RES     
   10045 C1         406.0006  -471.6104  -299.3950 C1            1 RES     
   10046 C1         406.6010  -470.2609  -299.4299 C1            1 RES     
   10047 S2         406.8654  -469.8025  -297.7100 S2            1 RES     
   10048 C1         405.3631  -470.7651  -297.4261 C1            1 RES     
   10049 C1         405.2075  -471.7871  -298.3438 C1            1 RES     
   10050 C1         407.6850  -470.5041  -300.3700 C1            1 RES     
   10051 C1         407.6052  -471.6930  -301.0355 C1            1 RES     
   10052 C1         408.6251  -471.8492  -301.9914 C1            1 RES     
   10053 C1         409.4571  -470.7058  -302.0551 C1            1 RES     
   10054 S2         408.9146  -469.5485  -300.9367 S2            1 RES     
   10055 H3         404.6083  -472.6576  -298.1330 H3            1 RES     
   10056 H3         408.7448  -472.7282  -302.6125 H3            1 RES     
   10057 N4         411.2806  -471.5964  -303.4510 N4            1 RES     
   10058 C1         412.4128  -471.4932  -304.2085 C1            1 RES     
   10059 C1         412.9687  -470.2421  -304.5020 C1            1 RES     
   10060 C1         412.3387  -469.1074  -304.0064 C1            1 RES     
   10061 N4         412.7736  -467.8455  -304.2427 N4            1 RES     
   10062 S2         411.6574  -466.9331  -303.4368 S2            1 RES     
   10063 N4         410.6365  -468.0541  -302.7807 N4            1 RES     
   10064 C1         411.1718  -469.2296  -303.2040 C1            1 RES     
   10065 C1         410.6429  -470.5082  -302.9249 C1            1 RES     
   10066 H5         412.8917  -472.3891  -304.5821 H5            1 RES     
   10067 C0         405.3156  -472.4966  -301.6856 C0            1 RES     
   10068 C0         403.9803  -473.1088  -301.2508 C0            1 RES     
   10069 C0         402.8215  -472.9813  -302.2445 C0            1 RES     
   10070 C0         402.3801  -471.5472  -302.5777 C0            1 RES     
   10071 C0         402.2184  -470.6505  -301.3331 C0            1 RES     
   10072 C0         401.5064  -469.3322  -301.6598 C0            1 RES     
   10073 C0         399.9863  -469.5406  -301.7466 C0            1 RES     
   10074 C0         399.2614  -468.2516  -302.1356 C0            1 RES     
   10075 C0         397.7462  -468.4295  -301.9979 C0            1 RES     
   10076 C0         396.8673  -467.3312  -302.6292 C0            1 RES     
   10077 C0         397.0643  -465.8770  -302.1564 C0            1 RES     
   10078 C0         398.2616  -465.1633  -302.8231 C0            1 RES     
   10079 C0         398.4487  -463.6853  -302.4265 C0            1 RES     
   10080 C0         397.5605  -462.6374  -303.1395 C0            1 RES     
   10081 C0         396.0486  -462.6537  -302.8693 C0            1 RES     
   10082 C0         395.7099  -462.5293  -301.3851 C0            1 RES     
   10083 H6         405.1360  -471.4344  -301.9556 H6            1 RES     
   10084 H6         405.6813  -473.0151  -302.5987 H6            1 RES     
   10085 H6         404.1311  -474.1775  -301.1068 H6            1 RES     
   10086 H6         403.6475  -472.6661  -300.2938 H6            1 RES     
   10087 H6         403.0554  -473.5195  -303.1886 H6            1 RES     
   10088 H6         401.9548  -473.4951  -301.7712 H6            1 RES     
   10089 H6         403.1158  -471.0649  -303.2573 H6            1 RES     
   10090 H6         401.4249  -471.6424  -303.1341 H6            1 RES     
   10091 H6         401.6656  -471.1671  -300.5180 H6            1 RES     
   10092 H6         403.2379  -470.4166  -300.9583 H6            1 RES     
   10093 H6         401.9275  -468.8932  -302.5914 H6            1 RES     
   10094 H6         401.6875  -468.6163  -300.8282 H6            1 RES     
   10095 H6         399.7269  -470.3221  -302.4905 H6            1 RES     
   10096 H6         399.6339  -469.8773  -300.7456 H6            1 RES     
   10097 H6         399.5828  -467.4459  -301.4449 H6            1 RES     
   10098 H6         399.5340  -468.0032  -303.1847 H6            1 RES     
   10099 H6         397.4473  -469.3785  -302.4959 H6            1 RES     
   10100 H6         397.5061  -468.5262  -300.9153 H6            1 RES     
   10101 H6         396.9426  -467.3642  -303.7375 H6            1 RES     
   10102 H6         395.8257  -467.6221  -302.3657 H6            1 RES     
   10103 H6         397.1205  -465.8330  -301.0472 H6            1 RES     
   10104 H6         396.1483  -465.3571  -302.4620 H6            1 RES     
   10105 H6         399.1851  -465.6660  -302.5036 H6            1 RES     
   10106 H6         398.2088  -465.2419  -303.9307 H6            1 RES     
   10107 H6         399.4836  -463.4189  -302.7388 H6            1 RES     
   10108 H6         398.4140  -463.5751  -301.3221 H6            1 RES     
   10109 H6         397.9361  -461.6381  -302.8273 H6            1 RES     
   10110 H6         397.7184  -462.7208  -304.2371 H6            1 RES     
   10111 H6         395.5995  -461.7885  -303.4033 H6            1 RES     
   10112 H6         395.5763  -463.5510  -303.3048 H6            1 RES     
   10113 H6         396.1428  -461.5948  -300.9696 H6            1 RES     
   10114 H6         394.6073  -462.4990  -301.2593 H6            1 RES     
   10115 H6         396.0995  -463.3971  -300.8149 H6            1 RES     
   10116 C0         406.8968  -473.9774  -300.1757 C0            1 RES     
   10117 C0         406.0710  -474.6800  -299.0702 C0            1 RES     
   10118 C0         406.3866  -476.1620  -298.7726 C0            1 RES     
   10119 C0         405.8422  -477.2247  -299.7592 C0            1 RES     
   10120 C0         404.3405  -477.0408  -300.0618 C0            1 RES     
   10121 C0         403.6435  -478.2543  -300.6938 C0            1 RES     
   10122 C0         403.2796  -479.3101  -299.6370 C0            1 RES     
   10123 C0         402.4982  -480.4811  -300.2512 C0            1 RES     
   10124 C0         401.9870  -481.4207  -299.1511 C0            1 RES     
   10125 C0         401.4195  -482.7825  -299.6066 C0            1 RES     
   10126 C0         400.1652  -482.8060  -300.5059 C0            1 RES     
   10127 C0         400.4472  -482.5215  -301.9953 C0            1 RES     
   10128 C0         399.2218  -482.6374  -302.9269 C0            1 RES     
   10129 C0         398.8048  -484.0563  -303.3883 C0            1 RES     
   10130 C0         398.2465  -485.0354  -302.3442 C0            1 RES     
   10131 C0         397.0262  -484.4862  -301.6079 C0            1 RES     
   10132 H6         406.9334  -474.5933  -301.1002 H6            1 RES     
   10133 H6         407.9341  -473.9343  -299.7739 H6            1 RES     
   10134 H6         406.3085  -474.1369  -298.1321 H6            1 RES     
   10135 H6         404.9870  -474.5990  -299.2258 H6            1 RES     
   10136 H6         407.4768  -476.3050  -298.6128 H6            1 RES     
   10137 H6         405.8831  -476.3823  -297.8046 H6            1 RES     
   10138 H6         406.4062  -477.2199  -300.7170 H6            1 RES     
   10139 H6         406.0103  -478.2079  -299.2708 H6            1 RES     
   10140 H6         403.7719  -476.7503  -299.1510 H6            1 RES     
   10141 H6         404.2764  -476.2217  -300.7903 H6            1 RES     
   10142 H6         404.2559  -478.6739  -301.5218 H6            1 RES     
   10143 H6         402.6823  -477.8968  -301.1229 H6            1 RES     
   10144 H6         404.1928  -479.6958  -299.1372 H6            1 RES     
   10145 H6         402.6360  -478.8203  -298.8712 H6            1 RES     
   10146 H6         401.6267  -480.0647  -300.7922 H6            1 RES     
   10147 H6         403.1664  -481.0266  -300.9515 H6            1 RES     
   10148 H6         402.8413  -481.6631  -298.4812 H6            1 RES     
   10149 H6         401.2250  -480.8817  -298.5446 H6            1 RES     
   10150 H6         402.2185  -483.3956  -300.0764 H6            1 RES     
   10151 H6         401.1330  -483.2929  -298.6596 H6            1 RES     
   10152 H6         399.3826  -482.1284  -300.1008 H6            1 RES     
   10153 H6         399.7844  -483.8319  -300.4250 H6            1 RES     
   10154 H6         400.7832  -481.4787  -302.0824 H6            1 RES     
   10155 H6         401.2622  -483.1712  -302.3813 H6            1 RES     
   10156 H6         399.5137  -482.1237  -303.8703 H6            1 RES     
   10157 H6         398.3630  -482.0694  -302.5109 H6            1 RES     
   10158 H6         398.0140  -483.9204  -304.1590 H6            1 RES     
   10159 H6         399.6722  -484.5392  -303.8892 H6            1 RES     
   10160 H6         397.9415  -485.9620  -302.8780 H6            1 RES     
   10161 H6         399.0281  -485.3458  -301.6294 H6            1 RES     
   10162 H6         396.2237  -484.2303  -302.3319 H6            1 RES     
   10163 H6         396.6407  -485.2559  -300.9067 H6            1 RES     
   10164 H6         397.2911  -483.5833  -301.0208 H6            1 RES     
   10165 C0         416.4357  -471.1196  -308.4143 C0            1 RES     
   10166 C1         415.6998  -470.5110  -307.2025 C1            1 RES     
   10167 C1         416.4933  -469.5280  -306.4364 C1            1 RES     
   10168 S2         415.9868  -469.7259  -304.7212 S2            1 RES     
   10169 C1         414.3770  -470.1113  -305.4452 C1            1 RES     
   10170 C1         414.4835  -470.6870  -306.6974 C1            1 RES     
   10171 C1         417.8238  -469.8618  -306.9225 C1            1 RES     
   10172 C1         417.8422  -470.6867  -308.0096 C1            1 RES     
   10173 C1         419.1423  -470.9156  -308.4951 C1            1 RES     
   10174 C1         420.1080  -470.1908  -307.7563 C1            1 RES     
   10175 S2         419.3339  -469.2999  -306.5350 S2            1 RES     
   10176 H3         413.7001  -471.2992  -307.1131 H3            1 RES     
   10177 H3         419.3708  -471.5528  -309.3404 H3            1 RES     
   10178 N4         422.1637  -471.2321  -308.6260 N4            1 RES     
   10179 C1         423.5157  -471.3312  -308.7956 C1            1 RES     
   10180 C1         424.3757  -470.3428  -308.3017 C1            1 RES     
   10181 C1         423.8200  -469.2566  -307.6374 C1            1 RES     
   10182 N4         424.5511  -468.2312  -307.1357 N4            1 RES     
   10183 S2         423.3874  -467.2552  -306.4870 S2            1 RES     
   10184 N4         421.9812  -468.0657  -306.7949 N4            1 RES     
   10185 C1         422.4132  -469.1747  -307.4514 C1            1 RES     
   10186 C1         421.5779  -470.1930  -307.9590 C1            1 RES     
   10187 H5         423.9301  -472.1873  -309.3122 H5            1 RES     
   10188 C0         416.0356  -470.3692  -309.7261 C0            1 RES     
   10189 C0         414.5649  -470.5505  -310.1148 C0            1 RES     
   10190 C0         414.0724  -469.7223  -311.3056 C0            1 RES     
   10191 C0         414.1328  -468.1965  -311.1305 C0            1 RES     
   10192 C0         413.5738  -467.7118  -309.7770 C0            1 RES     
   10193 C0         413.3768  -466.1914  -309.7447 C0            1 RES     
   10194 C0         412.0759  -465.7949  -310.4602 C0            1 RES     
   10195 C0         411.8919  -464.2773  -310.4967 C0            1 RES     
   10196 C0         410.4937  -463.9218  -311.0116 C0            1 RES     
   10197 C0         410.2565  -462.4451  -311.3861 C0            1 RES     
   10198 C0         410.4823  -461.3718  -310.3025 C0            1 RES     
   10199 C0         411.9654  -460.9824  -310.1127 C0            1 RES     
   10200 C0         412.2237  -459.8621  -309.0856 C0            1 RES     
   10201 C0         412.0078  -458.4024  -309.5527 C0            1 RES     
   10202 C0         410.5807  -457.9444  -309.8877 C0            1 RES     
   10203 C0         409.6052  -458.1478  -308.7301 C0            1 RES     
   10204 H6         416.2177  -469.2860  -309.5618 H6            1 RES     
   10205 H6         416.6845  -470.6918  -310.5694 H6            1 RES     
   10206 H6         414.4173  -471.5918  -310.3966 H6            1 RES     
   10207 H6         413.9086  -470.3197  -309.2555 H6            1 RES     
   10208 H6         414.6193  -470.0050  -312.2311 H6            1 RES     
   10209 H6         413.0038  -469.9990  -311.4495 H6            1 RES     
   10210 H6         415.1817  -467.8389  -311.2186 H6            1 RES     
   10211 H6         413.5622  -467.7680  -311.9801 H6            1 RES     
   10212 H6         412.6102  -468.2062  -309.5247 H6            1 RES     
   10213 H6         414.3133  -467.9878  -308.9950 H6            1 RES     
   10214 H6         414.2684  -465.6832  -310.1746 H6            1 RES     
   10215 H6         413.2737  -465.8700  -308.6850 H6            1 RES     
   10216 H6         412.0572  -466.1715  -311.5039 H6            1 RES     
   10217 H6         411.2299  -466.2584  -309.9041 H6            1 RES     
   10218 H6         411.9938  -463.8864  -309.4640 H6            1 RES     
   10219 H6         412.6753  -463.8486  -311.1593 H6            1 RES     
   10220 H6         410.2910  -464.5042  -311.9377 H6            1 RES     
   10221 H6         409.7516  -464.2383  -310.2446 H6            1 RES     
   10222 H6         410.8445  -462.1755  -312.2898 H6            1 RES     
   10223 H6         409.1818  -462.3994  -311.6723 H6            1 RES     
   10224 H6         410.0086  -461.6801  -309.3453 H6            1 RES     
   10225 H6         409.9451  -460.4883  -310.6678 H6            1 RES     
   10226 H6         412.5057  -461.8575  -309.7258 H6            1 RES     
   10227 H6         412.4344  -460.7064  -311.0820 H6            1 RES     
   10228 H6         413.3112  -459.9126  -308.8526 H6            1 RES     
   10229 H6         411.6874  -460.0772  -308.1374 H6            1 RES     
   10230 H6         412.3749  -457.7488  -308.7308 H6            1 RES     
   10231 H6         412.6516  -458.2105  -310.4388 H6            1 RES     
   10232 H6         410.6197  -456.8591  -310.1243 H6            1 RES     
   10233 H6         410.2096  -458.4362  -310.8034 H6            1 RES     
   10234 H6         409.9592  -457.6028  -307.8295 H6            1 RES     
   10235 H6         408.6066  -457.7555  -309.0155 H6            1 RES     
   10236 H6         409.4973  -459.2243  -308.4864 H6            1 RES     
   10237 C0         416.3798  -472.6989  -308.5314 C0            1 RES     
   10238 C0         415.0073  -473.3434  -308.2178 C0            1 RES     
   10239 C0         414.8468  -474.8551  -308.4887 C0            1 RES     
   10240 C0         414.6454  -475.3045  -309.9571 C0            1 RES     
   10241 C0         413.5397  -474.5048  -310.6772 C0            1 RES     
   10242 C0         413.0086  -475.1360  -311.9723 C0            1 RES     
   10243 C0         411.9862  -476.2468  -311.6811 C0            1 RES     
   10244 C0         411.3827  -476.8149  -312.9741 C0            1 RES     
   10245 C0         410.2360  -477.7820  -312.6513 C0            1 RES     
   10246 C0         409.7027  -478.6435  -313.8164 C0            1 RES     
   10247 C0         409.0537  -477.9416  -315.0284 C0            1 RES     
   10248 C0         410.0627  -477.3548  -316.0366 C0            1 RES     
   10249 C0         409.4361  -476.7356  -317.3041 C0            1 RES     
   10250 C0         409.0233  -477.7006  -318.4435 C0            1 RES     
   10251 C0         407.8554  -478.6690  -318.2011 C0            1 RES     
   10252 C0         406.5651  -477.9552  -317.8027 C0            1 RES     
   10253 H6         416.7333  -472.9840  -309.5459 H6            1 RES     
   10254 H6         417.0845  -473.1578  -307.8020 H6            1 RES     
   10255 H6         414.8679  -473.2266  -307.1231 H6            1 RES     
   10256 H6         414.1690  -472.8303  -308.7076 H6            1 RES     
   10257 H6         415.6763  -475.4264  -308.0196 H6            1 RES     
   10258 H6         413.9099  -475.1509  -307.9654 H6            1 RES     
   10259 H6         415.5873  -475.2242  -310.5419 H6            1 RES     
   10260 H6         414.3644  -476.3780  -309.9112 H6            1 RES     
   10261 H6         412.6738  -474.3087  -310.0071 H6            1 RES     
   10262 H6         413.9925  -473.5435  -310.9540 H6            1 RES     
   10263 H6         413.8474  -475.4864  -312.6130 H6            1 RES     
   10264 H6         412.4601  -474.3430  -312.5257 H6            1 RES     
   10265 H6         412.4543  -477.0679  -311.0989 H6            1 RES     
   10266 H6         411.1642  -475.8047  -311.0733 H6            1 RES     
   10267 H6         410.9759  -475.9697  -313.5622 H6            1 RES     
   10268 H6         412.1836  -477.3344  -313.5426 H6            1 RES     
   10269 H6         410.6002  -478.5052  -311.8886 H6            1 RES     
   10270 H6         409.3983  -477.2063  -312.1976 H6            1 RES     
   10271 H6         410.4922  -479.3384  -314.1752 H6            1 RES     
   10272 H6         408.9052  -479.2685  -313.3552 H6            1 RES     
   10273 H6         408.3217  -477.1767  -314.6896 H6            1 RES     
   10274 H6         408.4893  -478.7325  -315.5381 H6            1 RES     
   10275 H6         410.5952  -476.5308  -315.5410 H6            1 RES     
   10276 H6         410.8189  -478.1125  -316.3357 H6            1 RES     
   10277 H6         410.2371  -476.1107  -317.7590 H6            1 RES     
   10278 H6         408.6122  -476.0428  -317.0309 H6            1 RES     
   10279 H6         408.7409  -477.0650  -319.3119 H6            1 RES     
   10280 H6         409.9117  -478.2963  -318.7475 H6            1 RES     
   10281 H6         407.6690  -479.2188  -319.1494 H6            1 RES     
   10282 H6         408.1226  -479.4389  -317.4567 H6            1 RES     
   10283 H6         406.2737  -477.2231  -318.5855 H6            1 RES     
   10284 H6         405.7499  -478.7007  -317.6916 H6            1 RES     
   10285 H6         406.6871  -477.4273  -316.8350 H6            1 RES     
   10286 C0         429.0446  -471.2317  -310.6483 C0            1 RES     
   10287 C1         427.9535  -470.7822  -309.6544 C1            1 RES     
   10288 C1         428.4582  -470.4293  -308.3114 C1            1 RES     
   10289 S2         427.1658  -470.9242  -307.1614 S2            1 RES     
   10290 C1         426.0582  -470.4637  -308.5124 C1            1 RES     
   10291 C1         426.6361  -470.6424  -309.7554 C1            1 RES     
   10292 C1         429.7652  -471.0668  -308.3706 C1            1 RES     
   10293 C1         430.1401  -471.4820  -309.6154 C1            1 RES     
   10294 C1         431.4411  -472.0159  -309.6403 C1            1 RES     
   10295 C1         432.0561  -471.9457  -308.3673 C1            1 RES     
   10296 S2         430.9826  -471.2358  -307.2590 S2            1 RES     
   10297 H3         426.0446  -470.7747  -310.6465 H3            1 RES     
   10298 H3         431.9169  -472.4131  -310.5283 H3            1 RES     
   10299 N4         434.0299  -473.3598  -308.7810 N4            1 RES     
   10300 C1         435.2496  -473.8911  -308.4702 C1            1 RES     
   10301 C1         435.9424  -473.4774  -307.3260 C1            1 RES     
   10302 C1         435.3603  -472.5108  -306.5156 C1            1 RES     
   10303 N4         435.9462  -472.0197  -305.3962 N4            1 RES     
   10304 S2         434.8294  -470.9239  -304.8675 S2            1 RES     
   10305 N4         433.6144  -471.0357  -305.9813 N4            1 RES     
   10306 C1         434.0824  -471.9796  -306.8402 C1            1 RES     
   10307 C1         433.4114  -472.4246  -307.9995 C1            1 RES     
   10308 H5         435.6848  -474.6463  -309.1118 H5            1 RES     
   10309 C0         429.4752  -470.0367  -311.5596 C0            1 RES     
   10310 C0         428.3662  -469.5455  -312.4953 C0            1 RES     
   10311 C0         428.6749  -468.2836  -313.3071 C0            1 RES     
   10312 C0         428.9399  -467.0096  -312.4891 C0            1 RES     
   10313 C0         427.9084  -466.7760  -311.3663 C0            1 RES     
   10314 C0         428.0202  -465.3707  -310.7628 C0            1 RES     
   10315 C0         427.3252  -464.3350  -311.6604 C0            1 RES     
   10316 C0         427.4805  -462.9167  -311.1102 C0            1 RES     
   10317 C0         426.5983  -461.9407  -311.8949 C0            1 RES     
   10318 C0         426.8617  -460.4396  -311.6612 C0            1 RES     
   10319 C0         426.7459  -459.8931  -310.2242 C0            1 RES     
   10320 C0         428.0012  -460.1465  -309.3597 C0            1 RES     
   10321 C0         427.9495  -459.5537  -307.9375 C0            1 RES     
   10322 C0         428.2720  -458.0482  -307.7800 C0            1 RES     
   10323 C0         427.2990  -457.0240  -308.3826 C0            1 RES     
   10324 C0         425.8705  -457.1884  -307.8675 C0            1 RES     
   10325 H6         429.7634  -469.1948  -310.8950 H6            1 RES     
   10326 H6         430.3713  -470.3102  -312.1583 H6            1 RES     
   10327 H6         428.1718  -470.3283  -313.2267 H6            1 RES     
   10328 H6         427.4381  -469.3550  -311.9253 H6            1 RES     
   10329 H6         429.5307  -468.4605  -313.9940 H6            1 RES     
   10330 H6         427.7746  -468.0955  -313.9342 H6            1 RES     
   10331 H6         429.9499  -467.0508  -312.0267 H6            1 RES     
   10332 H6         428.9408  -466.1728  -313.2176 H6            1 RES     
   10333 H6         426.8662  -466.9351  -311.7201 H6            1 RES     
   10334 H6         428.1141  -467.5199  -310.5671 H6            1 RES     
   10335 H6         429.0882  -465.1208  -310.5762 H6            1 RES     
   10336 H6         427.4878  -465.3612  -309.7863 H6            1 RES     
   10337 H6         427.7349  -464.3535  -312.6916 H6            1 RES     
   10338 H6         426.2446  -464.5992  -311.7067 H6            1 RES     
   10339 H6         427.1501  -462.9127  -310.0517 H6            1 RES     
   10340 H6         428.5516  -462.6290  -311.1897 H6            1 RES     
   10341 H6         426.7541  -462.1085  -312.9837 H6            1 RES     
   10342 H6         425.5345  -462.1751  -311.6661 H6            1 RES     
   10343 H6         427.8498  -460.1501  -312.0795 H6            1 RES     
   10344 H6         426.0870  -459.9226  -312.2708 H6            1 RES     
   10345 H6         425.8226  -460.2742  -309.7365 H6            1 RES     
   10346 H6         426.6325  -458.8091  -310.3456 H6            1 RES     
   10347 H6         428.1087  -461.2306  -309.2158 H6            1 RES     
   10348 H6         428.9200  -459.7886  -309.8729 H6            1 RES     
   10349 H6         428.7597  -460.0639  -307.3694 H6            1 RES     
   10350 H6         426.9950  -459.8271  -307.4404 H6            1 RES     
   10351 H6         428.3207  -457.8469  -306.6871 H6            1 RES     
   10352 H6         429.2844  -457.8528  -308.1964 H6            1 RES     
   10353 H6         427.6569  -456.0100  -308.1011 H6            1 RES     
   10354 H6         427.3233  -457.0534  -309.4856 H6            1 RES     
   10355 H6         425.8492  -457.1013  -306.7606 H6            1 RES     
   10356 H6         425.2281  -456.3934  -308.3007 H6            1 RES     
   10357 H6         425.4521  -458.1715  -308.1645 H6            1 RES     
   10358 C0         428.7454  -472.5717  -311.4394 C0            1 RES     
   10359 C0         427.2944  -472.7322  -311.9558 C0            1 RES     
   10360 C0         426.9923  -473.9290  -312.8836 C0            1 RES     
   10361 C0         427.4343  -473.8200  -314.3640 C0            1 RES     
   10362 C0         426.9873  -472.4980  -315.0221 C0            1 RES     
   10363 C0         427.0287  -472.4804  -316.5570 C0            1 RES     
   10364 C0         425.7976  -473.1739  -317.1631 C0            1 RES     
   10365 C0         425.7884  -473.0747  -318.6957 C0            1 RES     
   10366 C0         424.4637  -473.6052  -319.2597 C0            1 RES     
   10367 C0         424.3962  -473.8284  -320.7860 C0            1 RES     
   10368 C0         424.5564  -472.6148  -321.7263 C0            1 RES     
   10369 C0         426.0169  -472.1681  -321.9420 C0            1 RES     
   10370 C0         426.2067  -471.0193  -322.9553 C0            1 RES     
   10371 C0         426.2101  -471.3854  -324.4606 C0            1 RES     
   10372 C0         424.9054  -471.8857  -325.0994 C0            1 RES     
   10373 C0         423.7488  -470.9015  -324.9361 C0            1 RES     
   10374 H6         429.4776  -472.6539  -312.2716 H6            1 RES     
   10375 H6         428.9108  -473.4489  -310.7745 H6            1 RES     
   10376 H6         426.6744  -472.9004  -311.0510 H6            1 RES     
   10377 H6         426.9105  -471.8288  -312.4481 H6            1 RES     
   10378 H6         427.3672  -474.8745  -312.4364 H6            1 RES     
   10379 H6         425.8821  -474.0022  -312.9187 H6            1 RES     
   10380 H6         428.5362  -473.9208  -314.4699 H6            1 RES     
   10381 H6         426.9628  -474.6791  -314.8866 H6            1 RES     
   10382 H6         425.9634  -472.2061  -314.6999 H6            1 RES     
   10383 H6         427.6945  -471.7328  -314.6757 H6            1 RES     
   10384 H6         427.9852  -472.9075  -316.9306 H6            1 RES     
   10385 H6         426.9779  -471.4169  -316.8767 H6            1 RES     
   10386 H6         425.7604  -474.2415  -316.8608 H6            1 RES     
   10387 H6         424.8891  -472.6623  -316.7715 H6            1 RES     
   10388 H6         425.8856  -472.0066  -318.9702 H6            1 RES     
   10389 H6         426.6449  -473.6586  -319.0955 H6            1 RES     
   10390 H6         424.2702  -474.6015  -318.8043 H6            1 RES     
   10391 H6         423.6413  -472.9246  -318.9443 H6            1 RES     
   10392 H6         425.1087  -474.6248  -321.0913 H6            1 RES     
   10393 H6         423.3710  -474.2251  -320.9621 H6            1 RES     
   10394 H6         423.9164  -471.7717  -321.3867 H6            1 RES     
   10395 H6         424.1628  -472.9571  -322.6916 H6            1 RES     
   10396 H6         426.3964  -471.7806  -320.9860 H6            1 RES     
   10397 H6         426.6600  -473.0252  -322.2369 H6            1 RES     
   10398 H6         427.2318  -470.6258  -322.7728 H6            1 RES     
   10399 H6         425.5053  -470.1870  -322.7343 H6            1 RES     
   10400 H6         426.5071  -470.4653  -325.0110 H6            1 RES     
   10401 H6         427.0003  -472.1464  -324.6421 H6            1 RES     
   10402 H6         425.0921  -472.0241  -326.1868 H6            1 RES     
   10403 H6         424.6285  -472.8824  -324.7144 H6            1 RES     
   10404 H6         424.0160  -469.9181  -325.3778 H6            1 RES     
   10405 H6         422.8523  -471.2950  -325.4597 H6            1 RES     
   10406 H6         423.4933  -470.7647  -323.8655 H6            1 RES     
   10407 C0         440.8900  -475.2762  -307.9431 C0            1 RES     
   10408 C1         439.5678  -474.7734  -307.3271 C1            1 RES     
   10409 C1         439.4268  -475.0414  -305.8810 C1            1 RES     
   10410 S2         437.6737  -475.3452  -305.6122 S2            1 RES     
   10411 C1         437.4606  -474.1364  -306.9379 C1            1 RES     
   10412 C1         438.5150  -474.1392  -307.8319 C1            1 RES     
   10413 C1         440.4503  -476.0641  -305.7250 C1            1 RES     
   10414 C1         441.2857  -476.2012  -306.7955 C1            1 RES     
   10415 C1         442.3081  -477.1404  -306.5691 C1            1 RES     
   10416 C1         442.2398  -477.6776  -305.2613 C1            1 RES     
   10417 S2         440.9287  -476.9851  -304.4330 S2            1 RES     
   10418 H3         438.4088  -473.7778  -308.8415 H3            1 RES     
   10419 H3         443.0627  -477.4035  -307.2998 H3            1 RES     
   10420 N4         443.8528  -479.5254  -305.4867 N4            1 RES     
   10421 C1         444.6454  -480.5314  -305.0111 C1            1 RES     
   10422 C1         444.7723  -480.7558  -303.6348 C1            1 RES     
   10423 C1         444.0744  -479.9282  -302.7642 C1            1 RES     
   10424 N4         444.1366  -480.0379  -301.4145 N4            1 RES     
   10425 S2         443.1407  -478.8180  -300.9171 S2            1 RES     
   10426 N4         442.6108  -478.1453  -302.3299 N4            1 RES     
   10427 C1         443.2385  -478.8969  -303.2725 C1            1 RES     
   10428 C1         443.1315  -478.7037  -304.6667 C1            1 RES     
   10429 H5         445.1779  -481.1684  -305.7054 H5            1 RES     
   10430 C0         441.9271  -474.1096  -308.0302 C0            1 RES     
   10431 C0         441.5203  -472.9954  -308.9997 C0            1 RES     
   10432 C0         442.4184  -471.7546  -309.0203 C0            1 RES     
   10433 C0         442.5023  -470.9670  -307.7031 C0            1 RES     
   10434 C0         441.1275  -470.7146  -307.0508 C0            1 RES     
   10435 C0         441.2082  -469.6920  -305.9109 C0            1 RES     
   10436 C0         441.2438  -468.2592  -306.4655 C0            1 RES     
   10437 C0         441.3898  -467.2253  -305.3483 C0            1 RES     
   10438 C0         441.1994  -465.8102  -305.9031 C0            1 RES     
   10439 C0         441.6054  -464.6494  -304.9732 C0            1 RES     
   10440 C0         440.9256  -464.5475  -303.5931 C0            1 RES     
   10441 C0         441.5381  -465.4841  -302.5277 C0            1 RES     
   10442 C0         440.9292  -465.3603  -301.1168 C0            1 RES     
   10443 C0         441.4232  -464.1948  -300.2264 C0            1 RES     
   10444 C0         441.0774  -462.7576  -300.6432 C0            1 RES     
   10445 C0         439.5756  -462.5329  -300.8084 C0            1 RES     
   10446 H6         442.0201  -473.6669  -307.0159 H6            1 RES     
   10447 H6         442.9276  -474.5021  -308.3153 H6            1 RES     
   10448 H6         441.5510  -473.4005  -310.0098 H6            1 RES     
   10449 H6         440.4900  -472.6562  -308.7854 H6            1 RES     
   10450 H6         443.4453  -472.0211  -309.3519 H6            1 RES     
   10451 H6         441.9837  -471.0752  -309.7876 H6            1 RES     
   10452 H6         443.1382  -471.5083  -306.9694 H6            1 RES     
   10453 H6         443.0142  -470.0137  -307.9486 H6            1 RES     
   10454 H6         440.3731  -470.3705  -307.7918 H6            1 RES     
   10455 H6         440.7768  -471.6821  -306.6317 H6            1 RES     
   10456 H6         442.0824  -469.9160  -305.2602 H6            1 RES     
   10457 H6         440.2873  -469.7767  -305.2932 H6            1 RES     
   10458 H6         442.0841  -468.1216  -307.1771 H6            1 RES     
   10459 H6         440.2889  -468.0844  -307.0109 H6            1 RES     
   10460 H6         440.6016  -467.4127  -304.5913 H6            1 RES     
   10461 H6         442.4012  -467.3388  -304.9004 H6            1 RES     
   10462 H6         441.8207  -465.6947  -306.8188 H6            1 RES     
   10463 H6         440.1332  -465.6962  -306.2021 H6            1 RES     
   10464 H6         442.7080  -464.6313  -304.8351 H6            1 RES     
   10465 H6         441.3340  -463.7305  -305.5397 H6            1 RES     
   10466 H6         439.8275  -464.6906  -303.6892 H6            1 RES     
   10467 H6         441.0975  -463.5130  -303.2725 H6            1 RES     
   10468 H6         441.3503  -466.5231  -302.8320 H6            1 RES     
   10469 H6         442.6401  -465.3523  -302.4644 H6            1 RES     
   10470 H6         441.2522  -466.2740  -300.5688 H6            1 RES     
   10471 H6         439.8208  -465.3997  -301.1704 H6            1 RES     
   10472 H6         440.9815  -464.3565  -299.2184 H6            1 RES     
   10473 H6         442.5275  -464.2692  -300.1182 H6            1 RES     
   10474 H6         441.4466  -462.0756  -299.8470 H6            1 RES     
   10475 H6         441.6197  -462.4677  -301.5596 H6            1 RES     
   10476 H6         439.0451  -462.7741  -299.8630 H6            1 RES     
   10477 H6         439.3873  -461.4687  -301.0621 H6            1 RES     
   10478 H6         439.1679  -463.1610  -301.6264 H6            1 RES     
   10479 C0         440.7511  -476.1174  -309.2788 C0            1 RES     
   10480 C0         439.7241  -475.5775  -310.3041 C0            1 RES     
   10481 C0         439.6759  -476.2511  -311.6927 C0            1 RES     
   10482 C0         440.7835  -475.8804  -312.7099 C0            1 RES     
   10483 C0         440.9726  -474.3558  -312.8537 C0            1 RES     
   10484 C0         441.7453  -473.9035  -314.1011 C0            1 RES     
   10485 C0         440.8457  -473.8881  -315.3479 C0            1 RES     
   10486 C0         441.5898  -473.3459  -316.5771 C0            1 RES     
   10487 C0         440.6216  -473.1649  -317.7537 C0            1 RES     
   10488 C0         441.2501  -472.8880  -319.1365 C0            1 RES     
   10489 C0         442.0731  -471.5978  -319.3383 C0            1 RES     
   10490 C0         443.5140  -471.6729  -318.7932 C0            1 RES     
   10491 C0         444.3847  -470.4292  -319.0723 C0            1 RES     
   10492 C0         445.0360  -470.3107  -320.4729 C0            1 RES     
   10493 C0         444.1266  -470.0881  -321.6911 C0            1 RES     
   10494 C0         443.2495  -468.8448  -321.5581 C0            1 RES     
   10495 H6         441.7601  -476.2124  -309.7352 H6            1 RES     
   10496 H6         440.4042  -477.1484  -309.0425 H6            1 RES     
   10497 H6         438.7278  -475.7661  -309.8534 H6            1 RES     
   10498 H6         439.8065  -474.4945  -310.4661 H6            1 RES     
   10499 H6         439.5992  -477.3547  -311.5893 H6            1 RES     
   10500 H6         438.7276  -475.9001  -312.1582 H6            1 RES     
   10501 H6         441.7583  -476.3405  -312.4385 H6            1 RES     
   10502 H6         440.4622  -476.3131  -313.6810 H6            1 RES     
   10503 H6         439.9985  -473.8190  -312.8361 H6            1 RES     
   10504 H6         441.5616  -474.0402  -311.9824 H6            1 RES     
   10505 H6         442.6600  -474.5199  -314.2434 H6            1 RES     
   10506 H6         442.0617  -472.8515  -313.9304 H6            1 RES     
   10507 H6         440.4615  -474.9064  -315.5668 H6            1 RES     
   10508 H6         439.9799  -473.2199  -315.1371 H6            1 RES     
   10509 H6         442.0123  -472.3573  -316.3130 H6            1 RES     
   10510 H6         442.4009  -474.0566  -316.8445 H6            1 RES     
   10511 H6         440.0443  -474.1082  -317.8725 H6            1 RES     
   10512 H6         439.8991  -472.3564  -317.5024 H6            1 RES     
   10513 H6         441.8513  -473.7616  -319.4689 H6            1 RES     
   10514 H6         440.3790  -472.8122  -319.8256 H6            1 RES     
   10515 H6         441.5268  -470.7195  -318.9311 H6            1 RES     
   10516 H6         442.1308  -471.4723  -320.4268 H6            1 RES     
   10517 H6         443.4574  -471.7507  -317.6983 H6            1 RES     
   10518 H6         444.0390  -472.5779  -319.1682 H6            1 RES     
   10519 H6         445.2520  -470.5097  -318.3792 H6            1 RES     
   10520 H6         443.8403  -469.5032  -318.7903 H6            1 RES     
   10521 H6         445.7326  -469.4444  -320.4274 H6            1 RES     
   10522 H6         445.6514  -471.2178  -320.6594 H6            1 RES     
   10523 H6         444.7794  -469.9584  -322.5818 H6            1 RES     
   10524 H6         443.5114  -470.9807  -321.8988 H6            1 RES     
   10525 H6         443.8809  -467.9437  -321.4065 H6            1 RES     
   10526 H6         442.6554  -468.7109  -322.4864 H6            1 RES     
   10527 H6         442.5455  -468.9459  -320.7071 H6            1 RES     
   10528 C0         448.9547  -483.9690  -303.1074 C0            1 RES     
   10529 C1         447.6256  -483.2237  -302.8657 C1            1 RES     
   10530 C1         446.7613  -483.8345  -301.8348 C1            1 RES     
   10531 S2         445.0721  -483.5420  -302.3818 S2            1 RES     
   10532 C1         445.7588  -482.0064  -303.0408 C1            1 RES     
   10533 C1         447.0887  -482.1306  -303.3969 C1            1 RES     
   10534 C1         447.3642  -485.1574  -301.7685 C1            1 RES     
   10535 C1         448.5649  -485.2684  -302.4080 C1            1 RES     
   10536 C1         449.1494  -486.5377  -302.2483 C1            1 RES     
   10537 C1         448.3610  -487.3723  -301.4202 C1            1 RES     
   10538 S2         446.9770  -486.5259  -300.9179 S2            1 RES     
   10539 H3         447.5507  -481.4754  -304.1170 H3            1 RES     
   10540 H3         450.0939  -486.8305  -302.6898 H3            1 RES     
   10541 N4         449.4906  -489.5268  -301.8065 N4            1 RES     
   10542 C1         449.7463  -490.8446  -301.5529 C1            1 RES     
   10543 C1         449.1533  -491.4943  -300.4635 C1            1 RES     
   10544 C1         448.3005  -490.7649  -299.6446 C1            1 RES     
   10545 N4         447.6871  -491.2819  -298.5519 N4            1 RES     
   10546 S2         446.8338  -489.9873  -297.9832 S2            1 RES     
   10547 N4         447.1864  -488.7838  -299.0586 N4            1 RES     
   10548 C1         448.0283  -489.3993  -299.9303 C1            1 RES     
   10549 C1         448.6408  -488.7792  -301.0406 C1            1 RES     
   10550 H5         450.4103  -491.3973  -302.2050 H5            1 RES     
   10551 C0         450.1116  -483.2917  -302.3032 C0            1 RES     
   10552 C0         450.4436  -481.8737  -302.7785 C0            1 RES     
   10553 C0         451.4642  -481.0996  -301.9384 C0            1 RES     
   10554 C0         451.0596  -480.8224  -300.4818 C0            1 RES     
   10555 C0         449.6193  -480.2896  -300.3360 C0            1 RES     
   10556 C0         449.3426  -479.7515  -298.9270 C0            1 RES     
   10557 C0         449.9171  -478.3358  -298.7615 C0            1 RES     
   10558 C0         449.7093  -477.8048  -297.3426 C0            1 RES     
   10559 C0         450.0869  -476.3222  -297.2674 C0            1 RES     
   10560 C0         450.2160  -475.7189  -295.8545 C0            1 RES     
   10561 C0         448.9938  -475.7870  -294.9171 C0            1 RES     
   10562 C0         448.8267  -477.1515  -294.2115 C0            1 RES     
   10563 C0         447.6548  -477.2353  -293.2134 C0            1 RES     
   10564 C0         447.8790  -476.6484  -291.7990 C0            1 RES     
   10565 C0         448.0619  -475.1301  -291.6568 C0            1 RES     
   10566 C0         446.8983  -474.3348  -292.2457 C0            1 RES     
   10567 H6         449.7925  -483.2333  -301.2411 H6            1 RES     
   10568 H6         451.0285  -483.9196  -302.3415 H6            1 RES     
   10569 H6         450.8740  -481.9453  -303.7760 H6            1 RES     
   10570 H6         449.5247  -481.2610  -302.8325 H6            1 RES     
   10571 H6         452.4503  -481.6123  -301.9517 H6            1 RES     
   10572 H6         451.5909  -480.1150  -302.4420 H6            1 RES     
   10573 H6         451.1481  -481.7486  -299.8735 H6            1 RES     
   10574 H6         451.8009  -480.0951  -300.0913 H6            1 RES     
   10575 H6         449.3945  -479.4922  -301.0777 H6            1 RES     
   10576 H6         448.9303  -481.1395  -300.5300 H6            1 RES     
   10577 H6         449.7366  -480.4601  -298.1650 H6            1 RES     
   10578 H6         448.2420  -479.6720  -298.7880 H6            1 RES     
   10579 H6         451.0038  -478.3115  -298.9850 H6            1 RES     
   10580 H6         449.3941  -477.6723  -299.4867 H6            1 RES     
   10581 H6         448.6358  -477.9055  -297.0838 H6            1 RES     
   10582 H6         450.3393  -478.4062  -296.6513 H6            1 RES     
   10583 H6         451.0793  -476.1774  -297.7491 H6            1 RES     
   10584 H6         449.3388  -475.7443  -297.8552 H6            1 RES     
   10585 H6         451.0979  -476.1461  -295.3301 H6            1 RES     
   10586 H6         450.4333  -474.6415  -296.0302 H6            1 RES     
   10587 H6         448.0714  -475.4843  -295.4583 H6            1 RES     
   10588 H6         449.1891  -475.0305  -294.1476 H6            1 RES     
   10589 H6         448.6091  -477.9111  -294.9752 H6            1 RES     
   10590 H6         449.7659  -477.4561  -293.7007 H6            1 RES     
   10591 H6         447.4916  -478.3215  -293.0318 H6            1 RES     
   10592 H6         446.7234  -476.8496  -293.6790 H6            1 RES     
   10593 H6         446.9874  -476.9267  -291.1950 H6            1 RES     
   10594 H6         448.7586  -477.1491  -291.3382 H6            1 RES     
   10595 H6         448.1302  -474.8969  -290.5722 H6            1 RES     
   10596 H6         449.0209  -474.8022  -292.0935 H6            1 RES     
   10597 H6         445.9451  -474.6325  -291.7600 H6            1 RES     
   10598 H6         447.0655  -473.2514  -292.0703 H6            1 RES     
   10599 H6         446.8179  -474.4998  -293.3394 H6            1 RES     
   10600 C0         449.3105  -484.2681  -304.6223 C0            1 RES     
   10601 C0         449.0262  -483.1144  -305.6152 C0            1 RES     
   10602 C0         449.5177  -483.2829  -307.0692 C0            1 RES     
   10603 C0         451.0248  -483.0604  -307.3486 C0            1 RES     
   10604 C0         451.5522  -481.7406  -306.7480 C0            1 RES     
   10605 C0         452.8985  -481.2560  -307.3053 C0            1 RES     
   10606 C0         452.7270  -480.5469  -308.6587 C0            1 RES     
   10607 C0         454.0576  -479.9778  -309.1730 C0            1 RES     
   10608 C0         453.8261  -479.1181  -310.4227 C0            1 RES     
   10609 C0         455.0794  -478.6958  -311.2195 C0            1 RES     
   10610 C0         456.1319  -477.7974  -310.5356 C0            1 RES     
   10611 C0         457.0907  -478.5503  -309.5907 C0            1 RES     
   10612 C0         458.2119  -477.6875  -308.9733 C0            1 RES     
   10613 C0         459.4624  -477.4083  -309.8440 C0            1 RES     
   10614 C0         459.3093  -476.5210  -311.0890 C0            1 RES     
   10615 C0         458.7365  -475.1419  -310.7685 C0            1 RES     
   10616 H6         450.3745  -484.5859  -304.6723 H6            1 RES     
   10617 H6         448.6997  -485.1216  -304.9933 H6            1 RES     
   10618 H6         447.9207  -483.0499  -305.6863 H6            1 RES     
   10619 H6         449.3851  -482.1403  -305.2571 H6            1 RES     
   10620 H6         449.1878  -484.2601  -307.4826 H6            1 RES     
   10621 H6         448.9964  -482.4897  -307.6508 H6            1 RES     
   10622 H6         451.6403  -483.9025  -306.9645 H6            1 RES     
   10623 H6         451.1297  -483.0394  -308.4541 H6            1 RES     
   10624 H6         450.8140  -480.9161  -306.8600 H6            1 RES     
   10625 H6         451.7016  -481.9334  -305.6774 H6            1 RES     
   10626 H6         453.6299  -482.0924  -307.3522 H6            1 RES     
   10627 H6         453.2926  -480.4926  -306.5997 H6            1 RES     
   10628 H6         452.3044  -481.2416  -309.4146 H6            1 RES     
   10629 H6         452.0148  -479.7027  -308.5151 H6            1 RES     
   10630 H6         454.4856  -479.3366  -308.3784 H6            1 RES     
   10631 H6         454.7417  -480.8229  -309.4015 H6            1 RES     
   10632 H6         453.2048  -479.7055  -311.1342 H6            1 RES     
   10633 H6         453.2445  -478.2142  -310.1335 H6            1 RES     
   10634 H6         455.5831  -479.5891  -311.6479 H6            1 RES     
   10635 H6         454.6776  -478.1081  -312.0753 H6            1 RES     
   10636 H6         455.6403  -476.9421  -310.0233 H6            1 RES     
   10637 H6         456.7262  -477.3871  -311.3617 H6            1 RES     
   10638 H6         456.5037  -478.9206  -308.7385 H6            1 RES     
   10639 H6         457.5435  -479.4308  -310.0956 H6            1 RES     
   10640 H6         458.6078  -478.2793  -308.1176 H6            1 RES     
   10641 H6         457.7911  -476.7539  -308.5435 H6            1 RES     
   10642 H6         460.2060  -476.9109  -309.1825 H6            1 RES     
   10643 H6         459.9022  -478.3792  -310.1608 H6            1 RES     
   10644 H6         460.3196  -476.3826  -311.5325 H6            1 RES     
   10645 H6         458.7080  -477.0236  -311.8662 H6            1 RES     
   10646 H6         459.3803  -474.6212  -310.0281 H6            1 RES     
   10647 H6         458.6976  -474.5335  -311.6964 H6            1 RES     
   10648 H6         457.7071  -475.2247  -310.3643 H6            1 RES     
   10649 C0         451.8578  -496.0144  -299.8718 C0            1 RES     
   10650 C1         450.7490  -494.9421  -299.8388 C1            1 RES     
   10651 C1         449.3970  -495.4695  -299.5618 C1            1 RES     
   10652 S2         448.2688  -494.4335  -300.5061 S2            1 RES     
   10653 C1         449.4708  -493.1339  -300.1456 C1            1 RES     
   10654 C1         450.7559  -493.6242  -300.0079 C1            1 RES     
   10655 C1         449.6242  -496.8776  -299.8514 C1            1 RES     
   10656 C1         450.9366  -497.2256  -299.9897 C1            1 RES     
   10657 C1         451.1138  -498.6071  -300.1858 C1            1 RES     
   10658 C1         449.8803  -499.3002  -300.1444 C1            1 RES     
   10659 S2         448.6195  -498.1952  -299.8726 S2            1 RES     
   10660 H3         451.6234  -493.0022  -300.1556 H3            1 RES     
   10661 H3         452.0768  -499.0805  -300.3314 H3            1 RES     
   10662 N4         450.6130  -501.5017  -300.9711 N4            1 RES     
   10663 C1         450.4543  -502.8336  -301.2302 C1            1 RES     
   10664 C1         449.2991  -503.5117  -300.8224 C1            1 RES     
   10665 C1         448.3192  -502.7972  -300.1448 C1            1 RES     
   10666 N4         447.1708  -503.3516  -299.6850 N4            1 RES     
   10667 S2         446.4200  -502.0641  -298.9734 S2            1 RES     
   10668 N4         447.4704  -500.8133  -299.2212 N4            1 RES     
   10669 C1         448.4884  -501.4077  -299.8978 C1            1 RES     
   10670 C1         449.6645  -500.7566  -300.3284 C1            1 RES     
   10671 H5         451.2271  -503.3722  -301.7633 H5            1 RES     
   10672 C0         452.5961  -496.0753  -298.4951 C0            1 RES     
   10673 C0         453.3836  -494.8041  -298.1622 C0            1 RES     
   10674 C0         454.0067  -494.7404  -296.7643 C0            1 RES     
   10675 C0         453.0178  -494.7767  -295.5883 C0            1 RES     
   10676 C0         451.8183  -493.8233  -295.7659 C0            1 RES     
   10677 C0         451.0124  -493.6618  -294.4713 C0            1 RES     
   10678 C0         451.7008  -492.6699  -293.5207 C0            1 RES     
   10679 C0         450.9479  -492.5428  -292.1959 C0            1 RES     
   10680 C0         451.5239  -491.3933  -291.3632 C0            1 RES     
   10681 C0         451.0764  -491.3236  -289.8895 C0            1 RES     
   10682 C0         449.5682  -491.2136  -289.5889 C0            1 RES     
   10683 C0         448.8222  -492.5654  -289.6482 C0            1 RES     
   10684 C0         447.3249  -492.5054  -289.2857 C0            1 RES     
   10685 C0         446.9550  -492.4853  -287.7830 C0            1 RES     
   10686 C0         447.3392  -491.2529  -286.9508 C0            1 RES     
   10687 C0         446.7790  -489.9524  -287.5234 C0            1 RES     
   10688 H6         451.8263  -496.2199  -297.7077 H6            1 RES     
   10689 H6         453.2774  -496.9533  -298.4601 H6            1 RES     
   10690 H6         454.2152  -494.7309  -298.8611 H6            1 RES     
   10691 H6         452.7417  -493.9117  -298.2808 H6            1 RES     
   10692 H6         454.7579  -495.5493  -296.6341 H6            1 RES     
   10693 H6         454.5478  -493.7688  -296.7146 H6            1 RES     
   10694 H6         452.6225  -495.8062  -295.4478 H6            1 RES     
   10695 H6         453.6076  -494.5200  -294.6843 H6            1 RES     
   10696 H6         452.1355  -492.8185  -296.1215 H6            1 RES     
   10697 H6         451.1555  -494.2652  -296.5405 H6            1 RES     
   10698 H6         450.8476  -494.6558  -293.9994 H6            1 RES     
   10699 H6         450.0188  -493.2307  -294.7241 H6            1 RES     
   10700 H6         452.7431  -492.9793  -293.2987 H6            1 RES     
   10701 H6         451.7288  -491.6794  -294.0286 H6            1 RES     
   10702 H6         449.8851  -492.3160  -292.4164 H6            1 RES     
   10703 H6         451.0399  -493.5074  -291.6505 H6            1 RES     
   10704 H6         452.6324  -491.4859  -291.3379 H6            1 RES     
   10705 H6         451.2768  -490.4368  -291.8760 H6            1 RES     
   10706 H6         451.4978  -492.1773  -289.3160 H6            1 RES     
   10707 H6         451.5562  -490.3996  -289.4959 H6            1 RES     
   10708 H6         449.0959  -490.4501  -290.2442 H6            1 RES     
   10709 H6         449.5148  -490.8433  -288.5580 H6            1 RES     
   10710 H6         448.8531  -492.9320  -290.6837 H6            1 RES     
   10711 H6         449.3231  -493.3277  -289.0127 H6            1 RES     
   10712 H6         446.8869  -493.4587  -289.6585 H6            1 RES     
   10713 H6         446.8250  -491.6877  -289.8464 H6            1 RES     
   10714 H6         445.8484  -492.5835  -287.7274 H6            1 RES     
   10715 H6         447.3906  -493.3843  -287.2944 H6            1 RES     
   10716 H6         446.9246  -491.3913  -285.9289 H6            1 RES     
   10717 H6         448.4332  -491.1849  -286.8223 H6            1 RES     
   10718 H6         445.6724  -490.0103  -287.5964 H6            1 RES     
   10719 H6         447.0492  -489.1082  -286.8550 H6            1 RES     
   10720 H6         447.2010  -489.7468  -288.5282 H6            1 RES     
   10721 C0         452.8286  -495.9625  -301.1231 C0            1 RES     
   10722 C0         453.2843  -494.5474  -301.5562 C0            1 RES     
   10723 C0         454.3677  -494.4476  -302.6519 C0            1 RES     
   10724 C0         455.8353  -494.7190  -302.2382 C0            1 RES     
   10725 C0         456.2568  -493.9228  -300.9856 C0            1 RES     
   10726 C0         457.7706  -493.8222  -300.7486 C0            1 RES     
   10727 C0         458.4089  -492.7348  -301.6286 C0            1 RES     
   10728 C0         459.9051  -492.5665  -301.3258 C0            1 RES     
   10729 C0         460.4717  -491.3548  -302.0775 C0            1 RES     
   10730 C0         462.0082  -491.2048  -302.0993 C0            1 RES     
   10731 C0         462.7575  -490.9969  -300.7660 C0            1 RES     
   10732 C0         462.9805  -492.2900  -299.9554 C0            1 RES     
   10733 C0         463.8135  -492.1191  -298.6671 C0            1 RES     
   10734 C0         465.3551  -492.0727  -298.8122 C0            1 RES     
   10735 C0         465.9919  -490.8667  -299.5197 C0            1 RES     
   10736 C0         465.6166  -489.5338  -298.8751 C0            1 RES     
   10737 H6         453.7019  -496.6169  -300.9118 H6            1 RES     
   10738 H6         452.3167  -496.3841  -302.0171 H6            1 RES     
   10739 H6         452.3841  -494.0660  -301.9910 H6            1 RES     
   10740 H6         453.6101  -493.9235  -300.7133 H6            1 RES     
   10741 H6         454.0925  -495.0685  -303.5313 H6            1 RES     
   10742 H6         454.3536  -493.3856  -302.9850 H6            1 RES     
   10743 H6         456.0150  -495.8006  -302.0551 H6            1 RES     
   10744 H6         456.4578  -494.4133  -303.1057 H6            1 RES     
   10745 H6         455.8386  -492.8921  -300.9958 H6            1 RES     
   10746 H6         455.8354  -494.4627  -300.1274 H6            1 RES     
   10747 H6         458.2567  -494.8141  -300.8774 H6            1 RES     
   10748 H6         457.9194  -493.4995  -299.6952 H6            1 RES     
   10749 H6         458.2731  -492.9715  -302.7047 H6            1 RES     
   10750 H6         457.8945  -491.7715  -301.4095 H6            1 RES     
   10751 H6         460.0166  -492.3904  -300.2385 H6            1 RES     
   10752 H6         460.4358  -493.4954  -301.6258 H6            1 RES     
   10753 H6         460.1654  -491.4373  -303.1437 H6            1 RES     
   10754 H6         460.0112  -490.4293  -301.6648 H6            1 RES     
   10755 H6         462.4706  -492.0515  -302.6511 H6            1 RES     
   10756 H6         462.1876  -490.2870  -302.7034 H6            1 RES     
   10757 H6         462.2580  -490.2128  -300.1565 H6            1 RES     
   10758 H6         463.7413  -490.6083  -301.0576 H6            1 RES     
   10759 H6         461.9982  -492.6537  -299.6225 H6            1 RES     
   10760 H6         463.4382  -493.0844  -300.5837 H6            1 RES     
   10761 H6         463.6282  -493.0382  -298.0671 H6            1 RES     
   10762 H6         463.4293  -491.2675  -298.0667 H6            1 RES     
   10763 H6         465.7725  -492.0996  -297.7812 H6            1 RES     
   10764 H6         465.6942  -492.9975  -299.3281 H6            1 RES     
   10765 H6         467.0961  -490.9826  -299.4589 H6            1 RES     
   10766 H6         465.7507  -490.8622  -300.5968 H6            1 RES     
   10767 H6         465.9153  -489.5269  -297.8053 H6            1 RES     
   10768 H6         466.1453  -488.7091  -299.3975 H6            1 RES     
   10769 H6         464.5255  -489.3501  -298.9517 H6            1 RES     
   10770 C0         450.4526  -508.6654  -301.2744 C0            1 RES     
   10771 C1         449.6959  -507.3232  -301.1942 C1            1 RES     
   10772 C1         448.3029  -507.3770  -301.6835 C1            1 RES     
   10773 S2         447.9897  -505.7721  -302.4345 S2            1 RES     
   10774 C1         449.0999  -505.1692  -301.1430 C1            1 RES     
   10775 C1         450.0392  -506.1120  -300.7693 C1            1 RES     
   10776 C1         448.3619  -508.6183  -302.4409 C1            1 RES     
   10777 C1         449.4843  -509.3641  -302.2249 C1            1 RES     
   10778 C1         449.4609  -510.5912  -302.9120 C1            1 RES     
   10779 C1         448.2497  -510.7652  -303.6237 C1            1 RES     
   10780 S2         447.2550  -509.4090  -303.3874 S2            1 RES     
   10781 H3         450.9739  -505.8359  -300.3095 H3            1 RES     
   10782 H3         450.2631  -511.3180  -302.8830 H3            1 RES     
   10783 N4         448.8440  -512.7337  -304.9797 N4            1 RES     
   10784 C1         448.5726  -513.7758  -305.8204 C1            1 RES     
   10785 C1         447.2563  -514.0730  -306.1938 C1            1 RES     
   10786 C1         446.2321  -513.2838  -305.6858 C1            1 RES     
   10787 N4         444.9209  -513.4895  -305.9610 N4            1 RES     
   10788 S2         444.1883  -512.2878  -305.0968 S2            1 RES     
   10789 N4         445.4498  -511.4936  -304.3848 N4            1 RES     
   10790 C1         446.5295  -512.1910  -304.8268 C1            1 RES     
   10791 C1         447.8694  -511.9186  -304.4761 C1            1 RES     
   10792 H5         449.3846  -514.3767  -306.2092 H5            1 RES     
   10793 C0         450.4149  -509.3940  -299.8917 C0            1 RES     
   10794 C0         451.1777  -508.6568  -298.7865 C0            1 RES     
   10795 C0         451.0554  -509.2396  -297.3751 C0            1 RES     
   10796 C0         449.6391  -509.2568  -296.7783 C0            1 RES     
   10797 C0         448.8823  -507.9245  -296.9563 C0            1 RES     
   10798 C0         447.6046  -507.8688  -296.1103 C0            1 RES     
   10799 C0         447.9328  -507.5240  -294.6491 C0            1 RES     
   10800 C0         446.6793  -507.5268  -293.7733 C0            1 RES     
   10801 C0         446.9983  -506.9671  -292.3836 C0            1 RES     
   10802 C0         445.9240  -507.1760  -291.2977 C0            1 RES     
   10803 C0         444.5100  -506.6167  -291.5524 C0            1 RES     
   10804 C0         443.6363  -507.5209  -292.4506 C0            1 RES     
   10805 C0         442.1923  -507.0280  -292.6715 C0            1 RES     
   10806 C0         441.1610  -507.3176  -291.5544 C0            1 RES     
   10807 C0         441.3320  -506.6144  -290.1997 C0            1 RES     
   10808 C0         441.3792  -505.0927  -290.3230 C0            1 RES     
   10809 H6         449.3510  -509.4725  -299.5828 H6            1 RES     
   10810 H6         450.8107  -510.4285  -299.9888 H6            1 RES     
   10811 H6         452.2383  -508.6899  -299.0300 H6            1 RES     
   10812 H6         450.8583  -507.5994  -298.7381 H6            1 RES     
   10813 H6         451.4791  -510.2665  -297.3384 H6            1 RES     
   10814 H6         451.6842  -508.5935  -296.7220 H6            1 RES     
   10815 H6         449.0331  -510.0630  -297.2456 H6            1 RES     
   10816 H6         449.7621  -509.5115  -295.7055 H6            1 RES     
   10817 H6         449.5196  -507.0482  -296.7061 H6            1 RES     
   10818 H6         448.5990  -507.8448  -298.0277 H6            1 RES     
   10819 H6         447.0443  -508.8255  -296.2040 H6            1 RES     
   10820 H6         446.9584  -507.0509  -296.4981 H6            1 RES     
   10821 H6         448.6592  -508.2431  -294.2170 H6            1 RES     
   10822 H6         448.3923  -506.5098  -294.6366 H6            1 RES     
   10823 H6         445.9187  -506.8736  -294.2470 H6            1 RES     
   10824 H6         446.3095  -508.5730  -293.7001 H6            1 RES     
   10825 H6         447.9175  -507.4610  -291.9977 H6            1 RES     
   10826 H6         447.2180  -505.8810  -292.4901 H6            1 RES     
   10827 H6         445.8446  -508.2526  -291.0336 H6            1 RES     
   10828 H6         446.3267  -506.6510  -290.4027 H6            1 RES     
   10829 H6         444.5674  -505.5770  -291.9414 H6            1 RES     
   10830 H6         444.0435  -506.5737  -290.5609 H6            1 RES     
   10831 H6         444.0864  -507.5511  -293.4526 H6            1 RES     
   10832 H6         443.6131  -508.5640  -292.0672 H6            1 RES     
   10833 H6         441.8099  -507.6002  -293.5465 H6            1 RES     
   10834 H6         442.1913  -505.9582  -292.9689 H6            1 RES     
   10835 H6         440.1675  -507.0167  -291.9541 H6            1 RES     
   10836 H6         441.1254  -508.4145  -291.3747 H6            1 RES     
   10837 H6         440.4614  -506.8861  -289.5644 H6            1 RES     
   10838 H6         442.2208  -506.9916  -289.6651 H6            1 RES     
   10839 H6         440.4550  -504.7184  -290.8120 H6            1 RES     
   10840 H6         441.4554  -504.6425  -289.3111 H6            1 RES     
   10841 H6         442.2609  -504.7693  -290.9128 H6            1 RES     
   10842 C0         451.8924  -508.6055  -301.9334 C0            1 RES     
   10843 C0         452.7653  -507.3946  -301.5217 C0            1 RES     
   10844 C0         454.2364  -507.3794  -301.9905 C0            1 RES     
   10845 C0         455.2428  -508.2767  -301.2283 C0            1 RES     
   10846 C0         455.1599  -508.0961  -299.6982 C0            1 RES     
   10847 C0         456.3627  -508.6296  -298.9067 C0            1 RES     
   10848 C0         457.5417  -507.6432  -298.9381 C0            1 RES     
   10849 C0         458.7112  -508.1299  -298.0696 C0            1 RES     
   10850 C0         459.7917  -507.0452  -297.9678 C0            1 RES     
   10851 C0         461.1473  -507.4673  -297.3611 C0            1 RES     
   10852 C0         461.1921  -507.9498  -295.8956 C0            1 RES     
   10853 C0         460.7438  -509.4119  -295.6953 C0            1 RES     
   10854 C0         460.8746  -509.9444  -294.2523 C0            1 RES     
   10855 C0         462.2734  -510.4234  -293.7899 C0            1 RES     
   10856 C0         463.3918  -509.3824  -293.6284 C0            1 RES     
   10857 C0         463.0216  -508.2580  -292.6632 C0            1 RES     
   10858 H6         452.4120  -509.5645  -301.7190 H6            1 RES     
   10859 H6         451.7994  -508.5278  -303.0399 H6            1 RES     
   10860 H6         452.2958  -506.5127  -302.0046 H6            1 RES     
   10861 H6         452.7627  -507.2107  -300.4391 H6            1 RES     
   10862 H6         454.3003  -507.5684  -303.0835 H6            1 RES     
   10863 H6         454.5903  -506.3382  -301.8180 H6            1 RES     
   10864 H6         455.0985  -509.3514  -301.4727 H6            1 RES     
   10865 H6         456.2501  -507.9785  -301.5885 H6            1 RES     
   10866 H6         455.0072  -507.0300  -299.4195 H6            1 RES     
   10867 H6         454.2836  -508.6718  -299.3722 H6            1 RES     
   10868 H6         456.6475  -509.6452  -299.2591 H6            1 RES     
   10869 H6         456.0493  -508.7091  -297.8431 H6            1 RES     
   10870 H6         457.8938  -507.4859  -299.9791 H6            1 RES     
   10871 H6         457.1840  -506.6691  -298.5334 H6            1 RES     
   10872 H6         458.3211  -508.3352  -297.0540 H6            1 RES     
   10873 H6         459.1283  -509.0558  -298.5205 H6            1 RES     
   10874 H6         460.0230  -506.6924  -298.9971 H6            1 RES     
   10875 H6         459.3801  -506.1812  -297.3995 H6            1 RES     
   10876 H6         461.6423  -508.2214  -298.0103 H6            1 RES     
   10877 H6         461.7684  -506.5444  -297.4039 H6            1 RES     
   10878 H6         460.6255  -507.2543  -295.2390 H6            1 RES     
   10879 H6         462.2498  -507.8798  -295.6121 H6            1 RES     
   10880 H6         459.6725  -509.4725  -295.9334 H6            1 RES     
   10881 H6         461.2816  -510.0957  -296.3870 H6            1 RES     
   10882 H6         460.2501  -510.8651  -294.2155 H6            1 RES     
   10883 H6         460.4243  -509.2287  -293.5323 H6            1 RES     
   10884 H6         462.1327  -510.9031  -292.7959 H6            1 RES     
   10885 H6         462.6304  -511.2121  -294.4877 H6            1 RES     
   10886 H6         464.2858  -509.9059  -293.2246 H6            1 RES     
   10887 H6         463.7009  -508.9733  -294.6058 H6            1 RES     
   10888 H6         462.7673  -508.6759  -291.6660 H6            1 RES     
   10889 H6         463.8847  -507.5688  -292.5507 H6            1 RES     
   10890 H6         462.1595  -507.6749  -293.0464 H6            1 RES     
   10891 C0         447.4572  -518.9129  -308.3458 C0            1 RES     
   10892 C1         447.0320  -517.4748  -307.9829 C1            1 RES     
   10893 C1         446.0624  -516.8697  -308.9191 C1            1 RES     
   10894 S2         446.4656  -515.1168  -308.9702 S2            1 RES     
   10895 C1         446.9163  -515.3699  -307.2390 C1            1 RES     
   10896 C1         447.3587  -516.6555  -306.9893 C1            1 RES     
   10897 C1         446.2334  -517.7646  -310.0541 C1            1 RES     
   10898 C1         446.9463  -518.8966  -309.7839 C1            1 RES     
   10899 C1         447.0159  -519.7696  -310.8846 C1            1 RES     
   10900 C1         446.2849  -519.2716  -311.9898 C1            1 RES     
   10901 S2         445.5840  -517.7802  -311.5786 S2            1 RES     
   10902 H3         447.9931  -516.8882  -306.1498 H3            1 RES     
   10903 H3         447.5476  -520.7129  -310.8779 H3            1 RES     
   10904 N4         447.0590  -520.8279  -313.7349 N4            1 RES     
   10905 C1         447.0257  -521.4018  -314.9743 C1            1 RES     
   10906 C1         446.0190  -521.0737  -315.8904 C1            1 RES     
   10907 C1         445.0525  -520.1523  -315.5071 C1            1 RES     
   10908 N4         444.0210  -519.7743  -316.3012 N4            1 RES     
   10909 S2         443.2143  -518.6999  -315.3406 S2            1 RES     
   10910 N4         444.1089  -518.6687  -313.9522 N4            1 RES     
   10911 C1         445.1093  -519.5487  -314.2215 C1            1 RES     
   10912 C1         446.1422  -519.9005  -313.3261 C1            1 RES     
   10913 H5         447.7900  -522.1144  -315.2560 H5            1 RES     
   10914 C0         446.6220  -519.9497  -307.5263 C0            1 RES     
   10915 C0         446.8904  -519.9024  -306.0188 C0            1 RES     
   10916 C0         445.9975  -520.7880  -305.1441 C0            1 RES     
   10917 C0         444.4958  -520.4618  -305.1746 C0            1 RES     
   10918 C0         444.1920  -518.9565  -305.0296 C0            1 RES     
   10919 C0         442.7040  -518.6900  -304.7720 C0            1 RES     
   10920 C0         442.3538  -518.9354  -303.2960 C0            1 RES     
   10921 C0         440.8609  -518.7381  -303.0300 C0            1 RES     
   10922 C0         440.5787  -518.7693  -301.5247 C0            1 RES     
   10923 C0         439.0987  -518.8814  -301.1074 C0            1 RES     
   10924 C0         438.1183  -517.7962  -301.5955 C0            1 RES     
   10925 C0         437.6234  -518.0114  -303.0434 C0            1 RES     
   10926 C0         436.5882  -516.9839  -303.5428 C0            1 RES     
   10927 C0         435.1145  -517.1920  -303.1184 C0            1 RES     
   10928 C0         434.7502  -517.0322  -301.6349 C0            1 RES     
   10929 C0         435.1458  -515.6691  -301.0705 C0            1 RES     
   10930 H6         445.5478  -519.7216  -307.6924 H6            1 RES     
   10931 H6         446.8061  -520.9793  -307.9036 H6            1 RES     
   10932 H6         447.9088  -520.2472  -305.8474 H6            1 RES     
   10933 H6         446.7996  -518.8662  -305.6441 H6            1 RES     
   10934 H6         446.1429  -521.8605  -305.3973 H6            1 RES     
   10935 H6         446.3495  -520.6393  -304.0986 H6            1 RES     
   10936 H6         444.0432  -520.8151  -306.1264 H6            1 RES     
   10937 H6         444.0386  -521.0476  -304.3506 H6            1 RES     
   10938 H6         444.7888  -518.4889  -304.2160 H6            1 RES     
   10939 H6         444.4771  -518.4673  -305.9856 H6            1 RES     
   10940 H6         442.0828  -519.3028  -305.4622 H6            1 RES     
   10941 H6         442.4952  -517.6175  -304.9798 H6            1 RES     
   10942 H6         442.6293  -519.9629  -302.9802 H6            1 RES     
   10943 H6         442.9387  -518.2111  -302.6852 H6            1 RES     
   10944 H6         440.5630  -517.7441  -303.4208 H6            1 RES     
   10945 H6         440.3056  -519.5486  -303.5507 H6            1 RES     
   10946 H6         441.0853  -519.6547  -301.0806 H6            1 RES     
   10947 H6         441.0291  -517.8590  -301.0692 H6            1 RES     
   10948 H6         438.6948  -519.8810  -301.3771 H6            1 RES     
   10949 H6         439.1179  -518.8281  -299.9957 H6            1 RES     
   10950 H6         438.5558  -516.7844  -301.4528 H6            1 RES     
   10951 H6         437.2531  -517.8798  -300.9269 H6            1 RES     
   10952 H6         438.4821  -517.9073  -303.7211 H6            1 RES     
   10953 H6         437.2172  -519.0371  -303.1797 H6            1 RES     
   10954 H6         436.5676  -517.0920  -304.6507 H6            1 RES     
   10955 H6         436.9378  -515.9511  -303.3329 H6            1 RES     
   10956 H6         434.5133  -516.4458  -303.6833 H6            1 RES     
   10957 H6         434.7846  -518.2007  -303.4507 H6            1 RES     
   10958 H6         433.6479  -517.1414  -301.5429 H6            1 RES     
   10959 H6         435.1824  -517.8472  -301.0291 H6            1 RES     
   10960 H6         434.6608  -514.8572  -301.6527 H6            1 RES     
   10961 H6         434.8148  -515.5972  -300.0133 H6            1 RES     
   10962 H6         436.2459  -515.5318  -301.0988 H6            1 RES     
   10963 C0         449.0170  -519.1916  -308.3402 C0            1 RES     
   10964 C0         449.8035  -518.5620  -307.1642 C0            1 RES     
   10965 C0         451.2906  -518.9476  -307.0088 C0            1 RES     
   10966 C0         451.6134  -520.3319  -306.3936 C0            1 RES     
   10967 C0         450.8461  -520.5925  -305.0807 C0            1 RES     
   10968 C0         451.3940  -521.7359  -304.2144 C0            1 RES     
   10969 C0         452.6108  -521.2859  -303.3892 C0            1 RES     
   10970 C0         453.1024  -522.3984  -302.4514 C0            1 RES     
   10971 C0         454.1903  -521.8648  -301.5101 C0            1 RES     
   10972 C0         454.9792  -522.9111  -300.6934 C0            1 RES     
   10973 C0         454.2230  -523.7850  -299.6702 C0            1 RES     
   10974 C0         453.4586  -524.9717  -300.2919 C0            1 RES     
   10975 C0         452.7771  -525.9145  -299.2773 C0            1 RES     
   10976 C0         453.6608  -526.9844  -298.5886 C0            1 RES     
   10977 C0         454.7441  -526.5208  -297.6026 C0            1 RES     
   10978 C0         454.1845  -525.6768  -296.4592 C0            1 RES     
   10979 H6         449.1729  -520.2913  -308.3824 H6            1 RES     
   10980 H6         449.4815  -518.7632  -309.2566 H6            1 RES     
   10981 H6         449.8040  -517.4696  -307.3589 H6            1 RES     
   10982 H6         449.3195  -518.7173  -306.1908 H6            1 RES     
   10983 H6         451.8311  -518.8160  -307.9706 H6            1 RES     
   10984 H6         451.7139  -518.2079  -306.2926 H6            1 RES     
   10985 H6         451.3975  -521.1565  -307.1071 H6            1 RES     
   10986 H6         452.7065  -520.3302  -306.1969 H6            1 RES     
   10987 H6         450.7896  -519.6773  -304.4509 H6            1 RES     
   10988 H6         449.8276  -520.8771  -305.3764 H6            1 RES     
   10989 H6         451.6087  -522.6331  -304.8355 H6            1 RES     
   10990 H6         450.6016  -522.0048  -303.4825 H6            1 RES     
   10991 H6         453.4407  -520.9690  -304.0550 H6            1 RES     
   10992 H6         452.3005  -520.4141  -302.7693 H6            1 RES     
   10993 H6         452.2429  -522.7363  -301.8410 H6            1 RES     
   10994 H6         453.4950  -523.2356  -303.0674 H6            1 RES     
   10995 H6         454.9493  -521.3346  -302.1268 H6            1 RES     
   10996 H6         453.7343  -521.1188  -300.8213 H6            1 RES     
   10997 H6         455.5667  -523.5668  -301.3717 H6            1 RES     
   10998 H6         455.7112  -522.3101  -300.1083 H6            1 RES     
   10999 H6         453.5592  -523.1573  -299.0369 H6            1 RES     
   11000 H6         455.0069  -524.1928  -299.0198 H6            1 RES     
   11001 H6         452.6432  -524.5640  -300.9058 H6            1 RES     
   11002 H6         454.1169  -525.5683  -300.9598 H6            1 RES     
   11003 H6         452.0455  -526.5106  -299.8677 H6            1 RES     
   11004 H6         452.1865  -525.3301  -298.5405 H6            1 RES     
   11005 H6         452.9717  -527.6493  -298.0221 H6            1 RES     
   11006 H6         454.1467  -527.6059  -299.3722 H6            1 RES     
   11007 H6         455.2149  -527.4284  -297.1655 H6            1 RES     
   11008 H6         455.5558  -525.9847  -298.1240 H6            1 RES     
   11009 H6         453.4086  -526.2466  -295.9052 H6            1 RES     
   11010 H6         455.0040  -525.4163  -295.7571 H6            1 RES     
   11011 H6         453.7428  -524.7342  -296.8422 H6            1 RES     
   11012 C0         446.2778  -524.7881  -319.6630 C0            1 RES     
   11013 C1         446.0200  -523.4696  -318.9043 C1            1 RES     
   11014 C1         445.7550  -522.3056  -319.7747 C1            1 RES     
   11015 S2         446.4659  -520.8896  -318.9218 S2            1 RES     
   11016 C1         445.9750  -521.7873  -317.4328 C1            1 RES     
   11017 C1         445.9843  -523.1578  -317.6132 C1            1 RES     
   11018 C1         446.2699  -522.8242  -321.0333 C1            1 RES     
   11019 C1         446.5309  -524.1638  -321.0326 C1            1 RES     
   11020 C1         446.9468  -524.6362  -322.2904 C1            1 RES     
   11021 C1         446.9461  -523.6042  -323.2593 C1            1 RES     
   11022 S2         446.4395  -522.1521  -322.5385 S2            1 RES     
   11023 H3         446.0810  -523.8421  -316.7864 H3            1 RES     
   11024 H3         447.2154  -525.6654  -322.4934 H3            1 RES     
   11025 N4         448.1405  -524.7475  -325.0849 N4            1 RES     
   11026 C1         448.5928  -524.8773  -326.3675 C1            1 RES     
   11027 C1         448.2324  -523.9504  -327.3531 C1            1 RES     
   11028 C1         447.4008  -522.8966  -326.9954 C1            1 RES     
   11029 N4         446.9705  -521.9524  -327.8677 N4            1 RES     
   11030 S2         446.0295  -520.9918  -326.9088 S2            1 RES     
   11031 N4         446.1380  -521.6995  -325.4200 N4            1 RES     
   11032 C1         446.9522  -522.7627  -325.6533 C1            1 RES     
   11033 C1         447.3404  -523.7141  -324.6855 C1            1 RES     
   11034 H5         449.2434  -525.7028  -326.6258 H5            1 RES     
   11035 C0         444.9689  -525.6402  -319.7321 C0            1 RES     
   11036 C0         444.4872  -526.1402  -318.3665 C0            1 RES     
   11037 C0         443.1319  -526.8539  -318.3464 C0            1 RES     
   11038 C0         441.9238  -526.0087  -318.7805 C0            1 RES     
   11039 C0         441.8873  -524.6109  -318.1291 C0            1 RES     
   11040 C0         440.5416  -523.9081  -318.3453 C0            1 RES     
   11041 C0         439.4882  -524.4315  -317.3564 C0            1 RES     
   11042 C0         438.1208  -523.7906  -317.5969 C0            1 RES     
   11043 C0         437.1534  -524.1583  -316.4676 C0            1 RES     
   11044 C0         435.6645  -523.8399  -316.7102 C0            1 RES     
   11045 C0         435.2694  -522.3798  -317.0089 C0            1 RES     
   11046 C0         435.4959  -521.9629  -318.4794 C0            1 RES     
   11047 C0         435.0481  -520.5305  -318.8321 C0            1 RES     
   11048 C0         433.5424  -520.3013  -319.1075 C0            1 RES     
   11049 C0         432.5523  -520.4639  -317.9447 C0            1 RES     
   11050 C0         432.8866  -519.5705  -316.7517 C0            1 RES     
   11051 H6         444.1727  -524.9977  -320.1642 H6            1 RES     
   11052 H6         445.1065  -526.5057  -320.4164 H6            1 RES     
   11053 H6         445.2104  -526.8670  -318.0001 H6            1 RES     
   11054 H6         444.4320  -525.3021  -317.6475 H6            1 RES     
   11055 H6         443.1687  -527.7797  -318.9605 H6            1 RES     
   11056 H6         442.9625  -527.1589  -317.2893 H6            1 RES     
   11057 H6         441.9224  -525.8752  -319.8841 H6            1 RES     
   11058 H6         441.0243  -526.6017  -318.5154 H6            1 RES     
   11059 H6         442.1005  -524.6553  -317.0386 H6            1 RES     
   11060 H6         442.6838  -524.0015  -318.6074 H6            1 RES     
   11061 H6         440.2203  -524.0194  -319.4046 H6            1 RES     
   11062 H6         440.6709  -522.8235  -318.1358 H6            1 RES     
   11063 H6         439.3732  -525.5326  -317.4330 H6            1 RES     
   11064 H6         439.8381  -524.1853  -316.3285 H6            1 RES     
   11065 H6         438.2460  -522.6889  -317.6049 H6            1 RES     
   11066 H6         437.7364  -524.1505  -318.5763 H6            1 RES     
   11067 H6         437.2026  -525.2560  -316.2930 H6            1 RES     
   11068 H6         437.4986  -523.6529  -315.5379 H6            1 RES     
   11069 H6         435.2530  -524.4959  -317.5073 H6            1 RES     
   11070 H6         435.1598  -524.1271  -315.7606 H6            1 RES     
   11071 H6         435.7728  -521.6879  -316.2994 H6            1 RES     
   11072 H6         434.1925  -522.3346  -316.8070 H6            1 RES     
   11073 H6         436.5756  -521.9850  -318.6825 H6            1 RES     
   11074 H6         435.0135  -522.6804  -319.1781 H6            1 RES     
   11075 H6         435.5390  -520.2923  -319.8025 H6            1 RES     
   11076 H6         435.4482  -519.8078  -318.0901 H6            1 RES     
   11077 H6         433.4429  -519.2565  -319.4760 H6            1 RES     
   11078 H6         433.2224  -520.9739  -319.9333 H6            1 RES     
   11079 H6         431.5430  -520.1850  -318.3174 H6            1 RES     
   11080 H6         432.4742  -521.5198  -317.6334 H6            1 RES     
   11081 H6         432.9076  -518.5050  -317.0640 H6            1 RES     
   11082 H6         432.1117  -519.6975  -315.9669 H6            1 RES     
   11083 H6         433.8690  -519.8426  -316.3150 H6            1 RES     
   11084 C0         447.5568  -525.6054  -319.2080 C0            1 RES     
   11085 C0         447.7907  -525.6826  -317.6793 C0            1 RES     
   11086 C0         448.9150  -526.6118  -317.1725 C0            1 RES     
   11087 C0         448.6279  -528.1334  -317.1363 C0            1 RES     
   11088 C0         447.2923  -528.4700  -316.4411 C0            1 RES     
   11089 C0         447.1249  -529.9349  -316.0121 C0            1 RES     
   11090 C0         447.8600  -530.2246  -314.6932 C0            1 RES     
   11091 C0         447.6162  -531.6628  -314.2125 C0            1 RES     
   11092 C0         448.2018  -531.8658  -312.8088 C0            1 RES     
   11093 C0         448.2833  -533.3183  -312.2915 C0            1 RES     
   11094 C0         446.9763  -534.1153  -312.0937 C0            1 RES     
   11095 C0         446.3879  -534.7013  -313.3934 C0            1 RES     
   11096 C0         445.1357  -535.5839  -313.2048 C0            1 RES     
   11097 C0         445.3550  -537.0543  -312.7689 C0            1 RES     
   11098 C0         445.9016  -537.3306  -311.3599 C0            1 RES     
   11099 C0         445.0400  -536.7174  -310.2579 C0            1 RES     
   11100 H6         447.4964  -526.6212  -319.6553 H6            1 RES     
   11101 H6         448.4761  -525.1268  -319.6141 H6            1 RES     
   11102 H6         448.0968  -524.6606  -317.3741 H6            1 RES     
   11103 H6         446.8806  -525.9297  -317.1167 H6            1 RES     
   11104 H6         449.8633  -526.4098  -317.7150 H6            1 RES     
   11105 H6         449.0791  -526.3240  -316.1098 H6            1 RES     
   11106 H6         448.6236  -528.5728  -318.1573 H6            1 RES     
   11107 H6         449.4704  -528.5889  -316.5739 H6            1 RES     
   11108 H6         447.1209  -527.8265  -315.5501 H6            1 RES     
   11109 H6         446.5060  -528.2625  -317.1789 H6            1 RES     
   11110 H6         447.4310  -530.6229  -316.8305 H6            1 RES     
   11111 H6         446.0439  -530.0986  -315.8104 H6            1 RES     
   11112 H6         448.9508  -530.0517  -314.8061 H6            1 RES     
   11113 H6         447.4676  -529.5239  -313.9215 H6            1 RES     
   11114 H6         446.5224  -531.8271  -314.1652 H6            1 RES     
   11115 H6         448.0840  -532.3642  -314.9361 H6            1 RES     
   11116 H6         449.2499  -531.4930  -312.8160 H6            1 RES     
   11117 H6         447.6271  -531.2432  -312.0869 H6            1 RES     
   11118 H6         448.9832  -533.9122  -312.9182 H6            1 RES     
   11119 H6         448.7475  -533.2270  -311.2838 H6            1 RES     
   11120 H6         446.2273  -533.5050  -311.5440 H6            1 RES     
   11121 H6         447.2574  -534.9532  -311.4434 H6            1 RES     
   11122 H6         446.0624  -533.8628  -314.0251 H6            1 RES     
   11123 H6         447.1549  -535.2719  -313.9604 H6            1 RES     
   11124 H6         444.6753  -535.6695  -314.2147 H6            1 RES     
   11125 H6         444.3913  -535.0690  -312.5613 H6            1 RES     
   11126 H6         444.3645  -537.5567  -312.8353 H6            1 RES     
   11127 H6         446.0248  -537.5498  -313.5053 H6            1 RES     
   11128 H6         445.9192  -538.4327  -311.2136 H6            1 RES     
   11129 H6         446.9505  -536.9998  -311.2664 H6            1 RES     
   11130 H6         443.9997  -537.1005  -310.3257 H6            1 RES     
   11131 H6         445.4569  -536.9933  -309.2666 H6            1 RES     
   11132 H6         445.0283  -535.6110  -310.3337 H6            1 RES     
   11133 C0         449.5347  -526.2147  -331.9653 C0            1 RES     
   11134 C1         449.2079  -525.1795  -330.8689 C1            1 RES     
   11135 C1         449.6236  -523.7985  -331.1893 C1            1 RES     
   11136 S2         450.1004  -523.0585  -329.6199 S2            1 RES     
   11137 C1         448.7933  -524.1105  -328.9499 C1            1 RES     
   11138 C1         448.6207  -525.2711  -329.6806 C1            1 RES     
   11139 C1         450.5653  -524.0740  -332.2641 C1            1 RES     
   11140 C1         450.5278  -525.3526  -332.7399 C1            1 RES     
   11141 C1         451.3934  -525.5513  -333.8305 C1            1 RES     
   11142 C1         452.0569  -524.3543  -334.1921 C1            1 RES     
   11143 S2         451.5611  -523.0991  -333.1610 S2            1 RES     
   11144 H3         448.1750  -526.1543  -329.2530 H3            1 RES     
   11145 H3         451.5202  -526.4986  -334.3396 H3            1 RES     
   11146 N4         453.7301  -525.2627  -335.7548 N4            1 RES     
   11147 C1         454.7054  -525.1648  -336.7065 C1            1 RES     
   11148 C1         455.0484  -523.9244  -337.2580 C1            1 RES     
   11149 C1         454.3703  -522.7955  -336.8160 C1            1 RES     
   11150 N4         454.6025  -521.5477  -337.2919 N4            1 RES     
   11151 S2         453.5252  -520.6380  -336.4320 S2            1 RES     
   11152 N4         452.7686  -521.7410  -335.4624 N4            1 RES     
   11153 C1         453.3705  -522.9085  -335.8119 C1            1 RES     
   11154 C1         453.0550  -524.1755  -335.2753 C1            1 RES     
   11155 H5         455.2255  -526.0554  -337.0350 H5            1 RES     
   11156 C0         448.2808  -526.4691  -332.8637 C0            1 RES     
   11157 C0         447.1181  -527.1370  -332.1228 C0            1 RES     
   11158 C0         445.8088  -527.2784  -332.9054 C0            1 RES     
   11159 C0         445.1461  -525.9631  -333.3448 C0            1 RES     
   11160 C0         445.0756  -524.9071  -332.2227 C0            1 RES     
   11161 C0         444.1632  -523.7314  -332.5928 C0            1 RES     
   11162 C0         442.6863  -524.1003  -332.3823 C0            1 RES     
   11163 C0         441.7549  -522.9642  -332.8069 C0            1 RES     
   11164 C0         440.3148  -523.2682  -332.3823 C0            1 RES     
   11165 C0         439.2176  -522.3720  -332.9905 C0            1 RES     
   11166 C0         439.3063  -520.8503  -332.7589 C0            1 RES     
   11167 C0         440.2844  -520.1319  -333.7152 C0            1 RES     
   11168 C0         440.3483  -518.5994  -333.5593 C0            1 RES     
   11169 C0         439.2351  -517.7662  -334.2389 C0            1 RES     
   11170 C0         437.7995  -517.8907  -333.7074 C0            1 RES     
   11171 C0         437.6893  -517.5750  -332.2170 C0            1 RES     
   11172 H6         447.9306  -525.4838  -333.2377 H6            1 RES     
   11173 H6         448.5574  -527.0823  -333.7490 H6            1 RES     
   11174 H6         447.4208  -528.1507  -331.8658 H6            1 RES     
   11175 H6         446.8902  -526.5883  -331.1904 H6            1 RES     
   11176 H6         445.9537  -527.9288  -333.7951 H6            1 RES     
   11177 H6         445.0989  -527.7971  -332.2225 H6            1 RES     
   11178 H6         445.6986  -525.5198  -334.2016 H6            1 RES     
   11179 H6         444.1336  -526.2365  -333.7067 H6            1 RES     
   11180 H6         444.7281  -525.3451  -331.2614 H6            1 RES     
   11181 H6         446.1050  -524.5187  -332.0677 H6            1 RES     
   11182 H6         444.3727  -523.4005  -333.6341 H6            1 RES     
   11183 H6         444.3848  -522.8823  -331.9095 H6            1 RES     
   11184 H6         442.4101  -525.0082  -332.9574 H6            1 RES     
   11185 H6         442.5425  -524.3131  -331.2989 H6            1 RES     
   11186 H6         442.0804  -522.0345  -332.2977 H6            1 RES     
   11187 H6         441.8238  -522.8533  -333.9111 H6            1 RES     
   11188 H6         440.0599  -524.3071  -332.6883 H6            1 RES     
   11189 H6         440.2644  -523.2215  -331.2713 H6            1 RES     
   11190 H6         439.1186  -522.5665  -334.0803 H6            1 RES     
   11191 H6         438.2754  -522.7210  -332.5115 H6            1 RES     
   11192 H6         439.5329  -520.6319  -331.6929 H6            1 RES     
   11193 H6         438.2962  -520.4767  -332.9656 H6            1 RES     
   11194 H6         441.3019  -520.4857  -333.4987 H6            1 RES     
   11195 H6         440.0656  -520.3837  -334.7756 H6            1 RES     
   11196 H6         441.2791  -518.2826  -334.0815 H6            1 RES     
   11197 H6         440.4769  -518.3256  -332.4909 H6            1 RES     
   11198 H6         439.5294  -516.6986  -334.1344 H6            1 RES     
   11199 H6         439.2249  -518.0003  -335.3260 H6            1 RES     
   11200 H6         437.1675  -517.1662  -334.2651 H6            1 RES     
   11201 H6         437.3782  -518.8864  -333.9289 H6            1 RES     
   11202 H6         438.0640  -516.5497  -332.0131 H6            1 RES     
   11203 H6         436.6257  -517.6353  -331.9046 H6            1 RES     
   11204 H6         438.2690  -518.3024  -331.6132 H6            1 RES     
   11205 C0         450.2535  -527.5375  -331.4708 C0            1 RES     
   11206 C0         449.7080  -528.1411  -330.1533 C0            1 RES     
   11207 C0         450.2477  -529.5215  -329.7201 C0            1 RES     
   11208 C0         449.6884  -530.7712  -330.4441 C0            1 RES     
   11209 C0         448.1465  -530.7856  -330.4999 C0            1 RES     
   11210 C0         447.5129  -532.1445  -330.8311 C0            1 RES     
   11211 C0         447.4556  -533.0571  -329.5950 C0            1 RES     
   11212 C0         446.7370  -534.3798  -329.8998 C0            1 RES     
   11213 C0         446.5279  -535.1861  -328.6112 C0            1 RES     
   11214 C0         446.0677  -536.6510  -328.7732 C0            1 RES     
   11215 C0         444.6986  -536.9360  -329.4265 C0            1 RES     
   11216 C0         444.7020  -536.8561  -330.9668 C0            1 RES     
   11217 C0         443.3675  -537.2340  -331.6444 C0            1 RES     
   11218 C0         443.0607  -538.7410  -331.8310 C0            1 RES     
   11219 C0         442.8015  -539.5994  -330.5834 C0            1 RES     
   11220 C0         441.6560  -539.0678  -329.7243 C0            1 RES     
   11221 H6         450.2179  -528.2808  -332.2963 H6            1 RES     
   11222 H6         451.3282  -527.3308  -331.2670 H6            1 RES     
   11223 H6         450.0231  -527.4401  -329.3529 H6            1 RES     
   11224 H6         448.6114  -528.1927  -330.1253 H6            1 RES     
   11225 H6         451.3586  -529.5295  -329.7367 H6            1 RES     
   11226 H6         449.9363  -529.6400  -328.6580 H6            1 RES     
   11227 H6         450.0873  -530.8571  -331.4781 H6            1 RES     
   11228 H6         450.0523  -531.6466  -329.8656 H6            1 RES     
   11229 H6         447.6990  -530.4170  -329.5506 H6            1 RES     
   11230 H6         447.8662  -530.0980  -331.3088 H6            1 RES     
   11231 H6         448.0325  -532.6229  -331.6901 H6            1 RES     
   11232 H6         446.4588  -531.9539  -331.1285 H6            1 RES     
   11233 H6         448.4774  -533.2693  -329.2165 H6            1 RES     
   11234 H6         446.8869  -532.5222  -328.8006 H6            1 RES     
   11235 H6         445.7456  -534.1395  -330.3300 H6            1 RES     
   11236 H6         447.3471  -534.9570  -330.6272 H6            1 RES     
   11237 H6         447.5016  -535.2373  -328.0756 H6            1 RES     
   11238 H6         445.8118  -534.6390  -327.9579 H6            1 RES     
   11239 H6         446.8511  -537.2465  -329.2897 H6            1 RES     
   11240 H6         446.0013  -537.0365  -327.7309 H6            1 RES     
   11241 H6         443.9130  -536.2854  -328.9846 H6            1 RES     
   11242 H6         444.4653  -537.9701  -329.1433 H6            1 RES     
   11243 H6         444.8883  -535.8108  -331.2505 H6            1 RES     
   11244 H6         445.5189  -537.4731  -331.3996 H6            1 RES     
   11245 H6         443.4393  -536.8442  -332.6846 H6            1 RES     
   11246 H6         442.5225  -536.6970  -331.1638 H6            1 RES     
   11247 H6         442.1464  -538.8037  -332.4618 H6            1 RES     
   11248 H6         443.8900  -539.2065  -332.4073 H6            1 RES     
   11249 H6         442.5321  -540.6223  -330.9262 H6            1 RES     
   11250 H6         443.7195  -539.7178  -329.9821 H6            1 RES     
   11251 H6         440.7228  -539.0064  -330.3236 H6            1 RES     
   11252 H6         441.4855  -539.7555  -328.8696 H6            1 RES     
   11253 H6         441.8976  -538.0640  -329.3193 H6            1 RES     
   11254 C0         457.9281  -525.0419  -341.5655 C0            1 RES     
   11255 C1         457.3255  -524.3311  -340.3359 C1            1 RES     
   11256 C1         458.1035  -523.1687  -339.8600 C1            1 RES     
   11257 S2         457.9056  -523.1513  -338.0716 S2            1 RES     
   11258 C1         456.2610  -523.8005  -338.4430 C1            1 RES     
   11259 C1         456.2366  -524.5475  -339.6059 C1            1 RES     
   11260 C1         459.3703  -523.4394  -340.5233 C1            1 RES     
   11261 C1         459.3167  -524.4150  -341.4762 C1            1 RES     
   11262 C1         460.5409  -524.5854  -342.1476 C1            1 RES     
   11263 C1         461.5150  -523.6640  -341.6940 C1            1 RES     
   11264 S2         460.8417  -522.6780  -340.4861 S2            1 RES     
   11265 H3         455.4786  -525.2906  -339.7915 H3            1 RES     
   11266 H3         460.7085  -525.3185  -342.9268 H3            1 RES     
   11267 N4         463.5184  -524.6170  -342.7640 N4            1 RES     
   11268 C1         464.8277  -524.6065  -343.1539 C1            1 RES     
   11269 C1         465.6266  -523.4738  -342.9558 C1            1 RES     
   11270 C1         465.0542  -522.3593  -342.3558 C1            1 RES     
   11271 N4         465.7236  -521.2019  -342.1324 N4            1 RES     
   11272 S2         464.5668  -520.2583  -341.4259 S2            1 RES     
   11273 N4         463.2405  -521.2417  -341.3703 N4            1 RES     
   11274 C1         463.6959  -522.3897  -341.9380 C1            1 RES     
   11275 C1         462.9226  -523.5515  -342.1497 C1            1 RES     
   11276 H5         465.2568  -525.4862  -343.6159 H5            1 RES     
   11277 C0         457.2342  -524.5444  -342.8751 C0            1 RES     
   11278 C0         455.7541  -524.9278  -342.9713 C0            1 RES     
   11279 C0         454.9793  -524.3444  -344.1571 C0            1 RES     
   11280 C0         454.8779  -522.8114  -344.2013 C0            1 RES     
   11281 C0         454.4865  -522.1833  -342.8479 C0            1 RES     
   11282 C0         454.1109  -520.7029  -342.9855 C0            1 RES     
   11283 C0         452.6735  -520.5515  -343.5077 C0            1 RES     
   11284 C0         452.3000  -519.0831  -343.7142 C0            1 RES     
   11285 C0         450.8045  -518.9509  -344.0182 C0            1 RES     
   11286 C0         450.3299  -517.5797  -344.5395 C0            1 RES     
   11287 C0         450.5914  -516.3363  -343.6661 C0            1 RES     
   11288 C0         452.0262  -515.7773  -343.7940 C0            1 RES     
   11289 C0         452.3046  -514.4931  -342.9878 C0            1 RES     
   11290 C0         451.8383  -513.1507  -343.6009 C0            1 RES     
   11291 C0         450.3304  -512.8931  -343.7381 C0            1 RES     
   11292 C0         449.5849  -513.0127  -342.4103 C0            1 RES     
   11293 H6         457.3048  -523.4361  -342.8920 H6            1 RES     
   11294 H6         457.7749  -524.9262  -343.7684 H6            1 RES     
   11295 H6         455.6932  -526.0094  -343.0807 H6            1 RES     
   11296 H6         455.2199  -524.6346  -342.0488 H6            1 RES     
   11297 H6         455.4022  -524.7097  -345.1179 H6            1 RES     
   11298 H6         453.9439  -524.7444  -344.0724 H6            1 RES     
   11299 H6         455.8470  -522.3694  -344.5195 H6            1 RES     
   11300 H6         454.1305  -522.5766  -344.9870 H6            1 RES     
   11301 H6         453.6441  -522.7263  -342.3662 H6            1 RES     
   11302 H6         455.3697  -522.2617  -342.1783 H6            1 RES     
   11303 H6         454.8527  -520.1806  -343.6295 H6            1 RES     
   11304 H6         454.1393  -520.2351  -341.9769 H6            1 RES     
   11305 H6         452.5352  -521.0832  -344.4718 H6            1 RES     
   11306 H6         451.9910  -521.0060  -342.7545 H6            1 RES     
   11307 H6         452.5163  -518.5307  -342.7774 H6            1 RES     
   11308 H6         452.9085  -518.6852  -344.5555 H6            1 RES     
   11309 H6         450.5301  -519.6853  -344.8076 H6            1 RES     
   11310 H6         450.2392  -519.2183  -343.0973 H6            1 RES     
   11311 H6         450.7283  -517.3945  -345.5604 H6            1 RES     
   11312 H6         449.2260  -517.6850  -344.6358 H6            1 RES     
   11313 H6         450.3183  -516.5399  -342.6081 H6            1 RES     
   11314 H6         449.8978  -515.5767  -344.0464 H6            1 RES     
   11315 H6         452.7252  -516.5251  -343.3945 H6            1 RES     
   11316 H6         452.2967  -515.6077  -344.8588 H6            1 RES     
   11317 H6         453.4132  -514.3994  -342.9451 H6            1 RES     
   11318 H6         451.9573  -514.6127  -341.9399 H6            1 RES     
   11319 H6         452.2482  -512.3460  -342.9515 H6            1 RES     
   11320 H6         452.3037  -513.0337  -344.6041 H6            1 RES     
   11321 H6         450.1968  -511.8582  -344.1212 H6            1 RES     
   11322 H6         449.8817  -513.5535  -344.5000 H6            1 RES     
   11323 H6         450.0080  -512.3040  -341.6673 H6            1 RES     
   11324 H6         448.5129  -512.7697  -342.5657 H6            1 RES     
   11325 H6         449.6512  -514.0446  -342.0095 H6            1 RES     
   11326 C0         458.0498  -526.6182  -341.4584 C0            1 RES     
   11327 C0         456.8352  -527.3400  -340.8248 C0            1 RES     
   11328 C0         456.8216  -528.8837  -340.8583 C0            1 RES     
   11329 C0         456.4455  -529.5701  -342.1949 C0            1 RES     
   11330 C0         455.1488  -529.0035  -342.8099 C0            1 RES     
   11331 C0         454.5000  -529.8749  -343.8950 C0            1 RES     
   11332 C0         453.6823  -531.0239  -343.2824 C0            1 RES     
   11333 C0         452.9551  -531.8401  -344.3612 C0            1 RES     
   11334 C0         452.0030  -532.8553  -343.7153 C0            1 RES     
   11335 C0         451.4011  -533.9334  -344.6423 C0            1 RES     
   11336 C0         450.4854  -533.4929  -345.8042 C0            1 RES     
   11337 C0         451.2403  -532.9701  -347.0435 C0            1 RES     
   11338 C0         450.3477  -532.6172  -348.2525 C0            1 RES     
   11339 C0         449.8808  -533.7813  -349.1618 C0            1 RES     
   11340 C0         448.8952  -534.8121  -348.5904 C0            1 RES     
   11341 C0         447.6069  -534.1773  -348.0706 C0            1 RES     
   11342 H6         458.2693  -527.0187  -342.4717 H6            1 RES     
   11343 H6         458.9131  -526.8880  -340.8094 H6            1 RES     
   11344 H6         456.8589  -527.0716  -339.7484 H6            1 RES     
   11345 H6         455.8726  -526.9935  -341.2239 H6            1 RES     
   11346 H6         457.7795  -529.2915  -340.4701 H6            1 RES     
   11347 H6         456.0240  -529.1874  -340.1437 H6            1 RES     
   11348 H6         457.2647  -529.4873  -342.9415 H6            1 RES     
   11349 H6         456.3103  -530.6465  -341.9568 H6            1 RES     
   11350 H6         454.3834  -528.7941  -342.0303 H6            1 RES     
   11351 H6         455.4293  -528.0558  -343.2881 H6            1 RES     
   11352 H6         455.2625  -530.2343  -344.6203 H6            1 RES     
   11353 H6         453.7765  -529.2342  -344.4445 H6            1 RES     
   11354 H6         454.3352  -531.6958  -342.6869 H6            1 RES     
   11355 H6         452.9196  -530.5777  -342.6044 H6            1 RES     
   11356 H6         452.3584  -531.1393  -344.9765 H6            1 RES     
   11357 H6         453.7130  -532.3584  -344.9868 H6            1 RES     
   11358 H6         452.5708  -533.4136  -342.9386 H6            1 RES     
   11359 H6         451.1839  -532.3029  -343.2026 H6            1 RES     
   11360 H6         452.2031  -534.5933  -345.0379 H6            1 RES     
   11361 H6         450.7709  -534.5564  -343.9686 H6            1 RES     
   11362 H6         449.7280  -532.7616  -345.4476 H6            1 RES     
   11363 H6         449.9489  -534.4045  -346.0962 H6            1 RES     
   11364 H6         451.7390  -532.0314  -346.7642 H6            1 RES     
   11365 H6         452.0267  -533.6859  -347.3667 H6            1 RES     
   11366 H6         450.9824  -531.9930  -348.9207 H6            1 RES     
   11367 H6         449.4988  -531.9760  -347.9340 H6            1 RES     
   11368 H6         449.3871  -533.3171  -350.0443 H6            1 RES     
   11369 H6         450.7760  -534.3254  -349.5347 H6            1 RES     
   11370 H6         448.6293  -535.5163  -349.4088 H6            1 RES     
   11371 H6         449.3710  -535.4288  -347.8083 H6            1 RES     
   11372 H6         447.1062  -533.6060  -348.8809 H6            1 RES     
   11373 H6         446.9184  -534.9741  -347.7190 H6            1 RES     
   11374 H6         447.8156  -533.4981  -347.2190 H6            1 RES     
   11375 C0         469.9348  -524.2439  -345.9462 C0            1 RES     
   11376 C1         468.9692  -523.7581  -344.8452 C1            1 RES     
   11377 C1         469.6343  -523.1557  -343.6715 C1            1 RES     
   11378 S2         468.6131  -523.5945  -342.2564 S2            1 RES     
   11379 C1         467.2559  -523.4581  -343.4410 C1            1 RES     
   11380 C1         467.6455  -523.7666  -344.7309 C1            1 RES     
   11381 C1         470.9837  -523.6619  -343.8736 C1            1 RES     
   11382 C1         471.2035  -524.2234  -345.0980 C1            1 RES     
   11383 C1         472.5398  -524.6232  -345.2795 C1            1 RES     
   11384 C1         473.3365  -524.2985  -344.1555 C1            1 RES     
   11385 S2         472.3743  -523.5375  -342.9809 S2            1 RES     
   11386 H3         466.9404  -524.0916  -345.4782 H3            1 RES     
   11387 H3         472.9131  -525.1024  -346.1759 H3            1 RES     
   11388 N4         475.3784  -525.5566  -344.7165 N4            1 RES     
   11389 C1         476.6883  -525.9105  -344.5567 C1            1 RES     
   11390 C1         477.4983  -525.2601  -343.6180 C1            1 RES     
   11391 C1         476.9381  -524.2434  -342.8548 C1            1 RES     
   11392 N4         477.6299  -523.5313  -341.9318 N4            1 RES     
   11393 S2         476.4850  -522.4837  -341.3667 S2            1 RES     
   11394 N4         475.1311  -522.8844  -342.2244 N4            1 RES     
   11395 C1         475.5691  -523.8974  -343.0178 C1            1 RES     
   11396 C1         474.7819  -524.5789  -343.9709 C1            1 RES     
   11397 H5         477.1055  -526.7081  -345.1578 H5            1 RES     
   11398 C0         470.0634  -523.1656  -347.0708 C0            1 RES     
   11399 C0         468.7672  -522.9356  -347.8542 C0            1 RES     
   11400 C0         468.7841  -521.7884  -348.8692 C0            1 RES     
   11401 C0         469.0167  -520.3844  -348.2887 C0            1 RES     
   11402 C0         468.1568  -520.0852  -347.0436 C0            1 RES     
   11403 C0         468.1890  -518.6001  -346.6629 C0            1 RES     
   11404 C0         467.2371  -517.7879  -347.5549 C0            1 RES     
   11405 C0         467.3017  -516.2938  -347.2356 C0            1 RES     
   11406 C0         466.1919  -515.5416  -347.9765 C0            1 RES     
   11407 C0         466.3016  -514.0039  -347.9960 C0            1 RES     
   11408 C0         466.3500  -513.2582  -346.6474 C0            1 RES     
   11409 C0         467.7488  -513.2507  -345.9910 C0            1 RES     
   11410 C0         467.8519  -512.4554  -344.6743 C0            1 RES     
   11411 C0         468.0069  -510.9191  -344.7791 C0            1 RES     
   11412 C0         466.8312  -510.1007  -345.3330 C0            1 RES     
   11413 C0         465.5346  -510.3251  -344.5574 C0            1 RES     
   11414 H6         470.3478  -522.2076  -346.5861 H6            1 RES     
   11415 H6         470.8794  -523.4372  -347.7756 H6            1 RES     
   11416 H6         468.5568  -523.8364  -348.4284 H6            1 RES     
   11417 H6         467.9257  -522.7532  -347.1606 H6            1 RES     
   11418 H6         469.5346  -521.9826  -349.6658 H6            1 RES     
   11419 H6         467.7790  -521.7886  -349.3477 H6            1 RES     
   11420 H6         470.0849  -520.2541  -348.0097 H6            1 RES     
   11421 H6         468.7980  -519.6729  -349.1114 H6            1 RES     
   11422 H6         467.0992  -520.3991  -347.1841 H6            1 RES     
   11423 H6         468.5778  -520.6741  -346.2006 H6            1 RES     
   11424 H6         469.2339  -518.2199  -346.7022 H6            1 RES     
   11425 H6         467.8222  -518.4942  -345.6183 H6            1 RES     
   11426 H6         467.4761  -517.9232  -348.6301 H6            1 RES     
   11427 H6         466.2039  -518.1618  -347.3746 H6            1 RES     
   11428 H6         467.1466  -516.1607  -346.1457 H6            1 RES     
   11429 H6         468.3026  -515.9169  -347.5399 H6            1 RES     
   11430 H6         466.1914  -515.8576  -349.0433 H6            1 RES     
   11431 H6         465.2154  -515.8425  -347.5349 H6            1 RES     
   11432 H6         467.1669  -513.6852  -348.6164 H6            1 RES     
   11433 H6         465.3817  -513.6655  -348.5236 H6            1 RES     
   11434 H6         465.5707  -513.6499  -345.9584 H6            1 RES     
   11435 H6         466.0856  -512.2222  -346.8911 H6            1 RES     
   11436 H6         468.0110  -514.2840  -345.7244 H6            1 RES     
   11437 H6         468.5226  -512.8862  -346.7011 H6            1 RES     
   11438 H6         468.7991  -512.7899  -344.1944 H6            1 RES     
   11439 H6         467.0301  -512.7428  -343.9850 H6            1 RES     
   11440 H6         468.2041  -510.5492  -343.7487 H6            1 RES     
   11441 H6         468.9079  -510.6903  -345.3894 H6            1 RES     
   11442 H6         467.1013  -509.0252  -345.2572 H6            1 RES     
   11443 H6         466.6825  -510.2958  -346.4090 H6            1 RES     
   11444 H6         465.6796  -510.0723  -343.4858 H6            1 RES     
   11445 H6         464.7380  -509.6733  -344.9735 H6            1 RES     
   11446 H6         465.1988  -511.3787  -344.6418 H6            1 RES     
   11447 C0         469.6810  -525.7120  -346.4856 C0            1 RES     
   11448 C0         468.1974  -526.0927  -346.7126 C0            1 RES     
   11449 C0         467.9013  -527.4412  -347.4040 C0            1 RES     
   11450 C0         468.0845  -527.5167  -348.9401 C0            1 RES     
   11451 C0         467.3782  -526.3618  -349.6805 C0            1 RES     
   11452 C0         467.1717  -526.5751  -351.1870 C0            1 RES     
   11453 C0         465.9549  -527.4718  -351.4688 C0            1 RES     
   11454 C0         465.6890  -527.6095  -352.9751 C0            1 RES     
   11455 C0         464.3671  -528.3487  -353.2212 C0            1 RES     
   11456 C0         464.0850  -528.8083  -354.6680 C0            1 RES     
   11457 C0         463.9419  -527.7429  -355.7758 C0            1 RES     
   11458 C0         465.2827  -527.1919  -356.3027 C0            1 RES     
   11459 C0         465.1649  -526.1984  -357.4783 C0            1 RES     
   11460 C0         464.9732  -526.7884  -358.8979 C0            1 RES     
   11461 C0         463.6552  -527.5072  -359.2245 C0            1 RES     
   11462 C0         462.4269  -526.6292  -358.9937 C0            1 RES     
   11463 H6         470.2755  -525.8475  -347.4149 H6            1 RES     
   11464 H6         470.0576  -526.4565  -345.7487 H6            1 RES     
   11465 H6         467.7553  -526.1812  -345.6987 H6            1 RES     
   11466 H6         467.6312  -525.3177  -347.2463 H6            1 RES     
   11467 H6         468.4567  -528.2654  -346.9072 H6            1 RES     
   11468 H6         466.8174  -527.6287  -347.2333 H6            1 RES     
   11469 H6         469.1593  -527.5228  -349.2236 H6            1 RES     
   11470 H6         467.6454  -528.4880  -349.2518 H6            1 RES     
   11471 H6         466.3908  -526.1270  -349.2253 H6            1 RES     
   11472 H6         468.0316  -525.4864  -349.5695 H6            1 RES     
   11473 H6         468.1016  -526.9573  -351.6623 H6            1 RES     
   11474 H6         466.9395  -525.5833  -351.6324 H6            1 RES     
   11475 H6         466.0986  -528.4789  -351.0244 H6            1 RES     
   11476 H6         465.0643  -526.9989  -350.9957 H6            1 RES     
   11477 H6         465.6085  -526.5916  -353.4030 H6            1 RES     
   11478 H6         466.5363  -528.1598  -353.4374 H6            1 RES     
   11479 H6         464.3734  -529.2779  -352.6096 H6            1 RES     
   11480 H6         463.5279  -527.7128  -352.8602 H6            1 RES     
   11481 H6         464.8325  -529.5674  -354.9843 H6            1 RES     
   11482 H6         463.1018  -529.3268  -354.6063 H6            1 RES     
   11483 H6         463.2651  -526.9254  -355.4450 H6            1 RES     
   11484 H6         463.4446  -528.2661  -356.6021 H6            1 RES     
   11485 H6         465.7590  -526.6271  -355.4891 H6            1 RES     
   11486 H6         465.9714  -528.0160  -356.5886 H6            1 RES     
   11487 H6         466.1495  -525.6820  -357.5332 H6            1 RES     
   11488 H6         464.4104  -525.4159  -357.2509 H6            1 RES     
   11489 H6         465.0626  -525.9384  -359.6102 H6            1 RES     
   11490 H6         465.8122  -527.4860  -359.1119 H6            1 RES     
   11491 H6         463.6817  -527.7911  -360.2992 H6            1 RES     
   11492 H6         463.5687  -528.4558  -358.6668 H6            1 RES     
   11493 H6         462.4966  -525.7033  -359.6032 H6            1 RES     
   11494 H6         461.5140  -527.1851  -359.2940 H6            1 RES     
   11495 H6         462.3307  -526.3563  -357.9230 H6            1 RES     
   11496 C0         482.4679  -526.6327  -344.8488 C0            1 RES     
   11497 C1         481.2091  -526.1752  -344.0829 C1            1 RES     
   11498 C1         481.3348  -526.2315  -342.6119 C1            1 RES     
   11499 S2         479.6983  -526.6629  -342.0008 S2            1 RES     
   11500 C1         479.1287  -525.6982  -343.4182 C1            1 RES     
   11501 C1         480.0191  -525.7332  -344.4750 C1            1 RES     
   11502 C1         482.4886  -527.1118  -342.5026 C1            1 RES     
   11503 C1         483.1530  -527.3275  -343.6752 C1            1 RES     
   11504 C1         484.3064  -528.1150  -343.5083 C1            1 RES     
   11505 C1         484.5146  -528.4500  -342.1489 C1            1 RES     
   11506 S2         483.2771  -527.7724  -341.2034 S2            1 RES     
   11507 H3         479.7092  -525.5428  -345.4894 H3            1 RES     
   11508 H3         484.9614  -528.4106  -344.3183 H3            1 RES     
   11509 N4         486.2868  -530.1414  -342.4047 N4            1 RES     
   11510 C1         487.2633  -530.9792  -341.9455 C1            1 RES     
   11511 C1         487.6349  -530.9768  -340.5956 C1            1 RES     
   11512 C1         486.9881  -530.0991  -339.7346 C1            1 RES     
   11513 N4         487.2780  -529.9944  -338.4146 N4            1 RES     
   11514 S2         486.2312  -528.8176  -337.9178 S2            1 RES     
   11515 N4         485.4037  -528.4247  -339.2926 N4            1 RES     
   11516 C1         485.9609  -529.2457  -340.2215 C1            1 RES     
   11517 C1         485.6097  -529.2796  -341.5883 C1            1 RES     
   11518 H5         487.7528  -531.6590  -342.6310 H5            1 RES     
   11519 C0         483.3256  -525.3962  -345.2724 C0            1 RES     
   11520 C0         482.6347  -524.4892  -346.2956 C0            1 RES     
   11521 C0         483.3578  -523.1833  -346.6398 C0            1 RES     
   11522 C0         483.5528  -522.1991  -345.4755 C0            1 RES     
   11523 C0         482.2792  -521.9875  -344.6313 C0            1 RES     
   11524 C0         482.4139  -520.7997  -343.6709 C0            1 RES     
   11525 C0         482.1832  -519.4722  -344.4099 C0            1 RES     
   11526 C0         482.3767  -518.2702  -343.4846 C0            1 RES     
   11527 C0         481.9268  -516.9826  -344.1817 C0            1 RES     
   11528 C0         482.3295  -515.6588  -343.5017 C0            1 RES     
   11529 C0         481.8713  -515.4149  -342.0499 C0            1 RES     
   11530 C0         482.7570  -516.1122  -340.9931 C0            1 RES     
   11531 C0         482.3705  -515.8351  -339.5266 C0            1 RES     
   11532 C0         482.8524  -514.5039  -338.9012 C0            1 RES     
   11533 C0         482.2696  -513.1888  -339.4394 C0            1 RES     
   11534 C0         480.7446  -513.1420  -339.3665 C0            1 RES     
   11535 H6         483.5239  -524.7966  -344.3588 H6            1 RES     
   11536 H6         484.3085  -525.7265  -345.6737 H6            1 RES     
   11537 H6         482.5537  -525.0389  -347.2319 H6            1 RES     
   11538 H6         481.6179  -524.2251  -345.9509 H6            1 RES     
   11539 H6         484.3436  -523.3943  -347.1080 H6            1 RES     
   11540 H6         482.7256  -522.6757  -347.4027 H6            1 RES     
   11541 H6         484.3597  -522.5561  -344.7992 H6            1 RES     
   11542 H6         483.8973  -521.2487  -345.9325 H6            1 RES     
   11543 H6         481.3796  -521.8373  -345.2675 H6            1 RES     
   11544 H6         482.1222  -522.9095  -344.0314 H6            1 RES     
   11545 H6         483.4016  -520.8338  -343.1599 H6            1 RES     
   11546 H6         481.6209  -520.8798  -342.8952 H6            1 RES     
   11547 H6         482.8756  -519.3624  -345.2701 H6            1 RES     
   11548 H6         481.1393  -519.4784  -344.7973 H6            1 RES     
   11549 H6         481.7487  -518.4169  -342.5825 H6            1 RES     
   11550 H6         483.4528  -518.2131  -343.2103 H6            1 RES     
   11551 H6         482.3749  -516.9475  -345.1995 H6            1 RES     
   11552 H6         480.8208  -517.0219  -344.3011 H6            1 RES     
   11553 H6         483.4292  -515.5106  -343.5633 H6            1 RES     
   11554 H6         481.8597  -514.8688  -344.1296 H6            1 RES     
   11555 H6         480.7982  -515.6792  -341.9313 H6            1 RES     
   11556 H6         481.9630  -514.3317  -341.9060 H6            1 RES     
   11557 H6         482.6529  -517.1990  -341.1176 H6            1 RES     
   11558 H6         483.8301  -515.8637  -341.1427 H6            1 RES     
   11559 H6         482.8872  -516.6176  -338.9265 H6            1 RES     
   11560 H6         481.2812  -515.9918  -339.3787 H6            1 RES     
   11561 H6         482.6007  -514.5525  -337.8188 H6            1 RES     
   11562 H6         483.9604  -514.4511  -338.9798 H6            1 RES     
   11563 H6         482.6740  -512.3598  -338.8192 H6            1 RES     
   11564 H6         482.6187  -512.9901  -340.4673 H6            1 RES     
   11565 H6         480.4057  -513.2872  -338.3190 H6            1 RES     
   11566 H6         480.3881  -512.1531  -339.7234 H6            1 RES     
   11567 H6         480.2923  -513.9251  -340.0085 H6            1 RES     
   11568 C0         482.2227  -527.6779  -346.0143 C0            1 RES     
   11569 C0         480.9864  -527.4056  -346.9060 C0            1 RES     
   11570 C0         480.8008  -528.2850  -348.1615 C0            1 RES     
   11571 C0         481.6775  -527.9663  -349.3980 C0            1 RES     
   11572 C0         481.6514  -526.4705  -349.7756 C0            1 RES     
   11573 C0         482.1532  -526.1400  -351.1887 C0            1 RES     
   11574 C0         481.0712  -526.4047  -352.2485 C0            1 RES     
   11575 C0         481.5368  -525.9858  -353.6508 C0            1 RES     
   11576 C0         480.3785  -526.0837  -354.6523 C0            1 RES     
   11577 C0         480.7391  -525.9606  -356.1486 C0            1 RES     
   11578 C0         481.3535  -524.6413  -356.6629 C0            1 RES     
   11579 C0         482.8610  -524.4890  -356.3745 C0            1 RES     
   11580 C0         483.5156  -523.2225  -356.9664 C0            1 RES     
   11581 C0         483.9153  -523.2556  -358.4627 C0            1 RES     
   11582 C0         482.8027  -523.3132  -359.5207 C0            1 RES     
   11583 C0         481.8112  -522.1573  -359.4034 C0            1 RES     
   11584 H6         483.1498  -527.7410  -346.6241 H6            1 RES     
   11585 H6         482.0480  -528.6899  -345.5847 H6            1 RES     
   11586 H6         480.1058  -527.6209  -346.2660 H6            1 RES     
   11587 H6         480.9075  -526.3574  -347.2236 H6            1 RES     
   11588 H6         480.8786  -529.3620  -347.8994 H6            1 RES     
   11589 H6         479.7544  -528.1052  -348.4958 H6            1 RES     
   11590 H6         482.7324  -528.2806  -349.2430 H6            1 RES     
   11591 H6         481.2613  -528.5721  -350.2306 H6            1 RES     
   11592 H6         480.6338  -526.0366  -349.6592 H6            1 RES     
   11593 H6         482.3283  -525.9685  -349.0718 H6            1 RES     
   11594 H6         483.1025  -526.6771  -351.4057 H6            1 RES     
   11595 H6         482.3603  -525.0481  -351.2188 H6            1 RES     
   11596 H6         480.7858  -527.4775  -352.2581 H6            1 RES     
   11597 H6         480.1743  -525.8012  -351.9802 H6            1 RES     
   11598 H6         481.8706  -524.9314  -353.6000 H6            1 RES     
   11599 H6         482.3764  -526.6451  -353.9590 H6            1 RES     
   11600 H6         479.9106  -527.0867  -354.5403 H6            1 RES     
   11601 H6         479.6109  -525.3219  -354.3885 H6            1 RES     
   11602 H6         481.3828  -526.8109  -356.4614 H6            1 RES     
   11603 H6         479.7666  -526.0779  -356.6776 H6            1 RES     
   11604 H6         480.7748  -523.7696  -356.2874 H6            1 RES     
   11605 H6         481.2208  -524.6786  -357.7514 H6            1 RES     
   11606 H6         482.9900  -524.4036  -355.2863 H6            1 RES     
   11607 H6         483.4272  -525.3842  -356.7113 H6            1 RES     
   11608 H6         484.4856  -523.1097  -356.4322 H6            1 RES     
   11609 H6         482.9130  -522.3228  -356.7197 H6            1 RES     
   11610 H6         484.4978  -522.3278  -358.6569 H6            1 RES     
   11611 H6         484.6004  -524.1150  -358.6313 H6            1 RES     
   11612 H6         483.2839  -523.2572  -360.5216 H6            1 RES     
   11613 H6         482.2773  -524.2836  -359.4956 H6            1 RES     
   11614 H6         482.3425  -521.1855  -359.4873 H6            1 RES     
   11615 H6         481.0647  -522.2265  -360.2222 H6            1 RES     
   11616 H6         481.2700  -522.1963  -358.4361 H6            1 RES     
   11617 C0         492.2125  -533.6410  -340.3861 C0            1 RES     
   11618 C1         490.8572  -533.0029  -340.0165 C1            1 RES     
   11619 C1         490.2507  -533.5316  -338.7774 C1            1 RES     
   11620 S2         488.4729  -533.4950  -339.0530 S2            1 RES     
   11621 C1         488.8505  -532.0178  -340.0222 C1            1 RES     
   11622 C1         490.1115  -532.0626  -340.5866 C1            1 RES     
   11623 C1         491.0153  -534.7624  -338.6415 C1            1 RES     
   11624 C1         492.1029  -534.8502  -339.4614 C1            1 RES     
   11625 C1         492.8577  -536.0160  -339.2383 C1            1 RES     
   11626 C1         492.3208  -536.7881  -338.1804 C1            1 RES     
   11627 S2         490.9409  -536.0162  -337.5604 S2            1 RES     
   11628 H3         490.3682  -531.4826  -341.4579 H3            1 RES     
   11629 H3         493.7484  -536.2777  -339.7957 H3            1 RES     
   11630 N4         493.6317  -538.8536  -338.4670 N4            1 RES     
   11631 C1         494.0855  -540.0853  -338.0881 C1            1 RES     
   11632 C1         493.7588  -540.6162  -336.8344 C1            1 RES     
   11633 C1         492.9641  -539.8583  -335.9835 C1            1 RES     
   11634 N4         492.6017  -540.2604  -334.7408 N4            1 RES     
   11635 S2         491.6967  -538.9851  -334.2095 S2            1 RES     
   11636 N4         491.7216  -537.9312  -335.4815 N4            1 RES     
   11637 C1         492.4832  -538.5863  -336.3972 C1            1 RES     
   11638 C1         492.8293  -538.0856  -337.6708 C1            1 RES     
   11639 H5         494.7001  -540.6625  -338.7668 H5            1 RES     
   11640 C0         493.3903  -532.7373  -339.8960 C0            1 RES     
   11641 C0         493.4643  -531.3828  -340.6078 C0            1 RES     
   11642 C0         494.5023  -530.3921  -340.0716 C0            1 RES     
   11643 C0         494.3043  -529.9368  -338.6170 C0            1 RES     
   11644 C0         492.8511  -529.5335  -338.2930 C0            1 RES     
   11645 C0         492.7385  -528.8163  -336.9422 C0            1 RES     
   11646 C0         493.1526  -527.3421  -337.0715 C0            1 RES     
   11647 C0         493.1099  -526.6236  -335.7223 C0            1 RES     
   11648 C0         493.3085  -525.1168  -335.9140 C0            1 RES     
   11649 C0         493.5860  -524.2948  -334.6395 C0            1 RES     
   11650 C0         492.5469  -524.3396  -333.5013 C0            1 RES     
   11651 C0         492.6645  -525.5899  -332.6010 C0            1 RES     
   11652 C0         491.6863  -525.6358  -331.4103 C0            1 RES     
   11653 C0         492.0592  -524.8201  -330.1489 C0            1 RES     
   11654 C0         492.0733  -523.2874  -330.2459 C0            1 RES     
   11655 C0         490.7415  -522.7108  -330.7222 C0            1 RES     
   11656 H6         493.2400  -532.5491  -338.8118 H6            1 RES     
   11657 H6         494.3597  -533.2697  -340.0103 H6            1 RES     
   11658 H6         493.7355  -531.5631  -341.6467 H6            1 RES     
   11659 H6         492.4800  -530.8798  -340.5809 H6            1 RES     
   11660 H6         495.5294  -530.8004  -340.1893 H6            1 RES     
   11661 H6         494.4244  -529.4884  -340.7170 H6            1 RES     
   11662 H6         494.6025  -530.7457  -337.9153 H6            1 RES     
   11663 H6         495.0028  -529.0885  -338.4640 H6            1 RES     
   11664 H6         492.4139  -528.8851  -339.0836 H6            1 RES     
   11665 H6         492.2503  -530.4671  -338.2472 H6            1 RES     
   11666 H6         493.3335  -529.3575  -336.1735 H6            1 RES     
   11667 H6         491.6729  -528.8260  -336.6239 H6            1 RES     
   11668 H6         494.1782  -527.2446  -337.4838 H6            1 RES     
   11669 H6         492.4426  -526.8524  -337.7757 H6            1 RES     
   11670 H6         492.1122  -526.7894  -335.2677 H6            1 RES     
   11671 H6         493.9115  -527.0467  -335.0783 H6            1 RES     
   11672 H6         494.1857  -524.9498  -336.5777 H6            1 RES     
   11673 H6         492.4107  -524.7127  -336.4332 H6            1 RES     
   11674 H6         494.5862  -524.5472  -334.2259 H6            1 RES     
   11675 H6         493.6376  -523.2408  -334.9935 H6            1 RES     
   11676 H6         491.5197  -524.2162  -333.9075 H6            1 RES     
   11677 H6         492.7675  -523.4587  -332.8865 H6            1 RES     
   11678 H6         492.4233  -526.4751  -333.2058 H6            1 RES     
   11679 H6         493.7035  -525.7181  -332.2272 H6            1 RES     
   11680 H6         491.6897  -526.6922  -331.0590 H6            1 RES     
   11681 H6         490.6522  -525.4201  -331.7524 H6            1 RES     
   11682 H6         491.3166  -525.0899  -329.3659 H6            1 RES     
   11683 H6         493.0560  -525.1548  -329.7871 H6            1 RES     
   11684 H6         492.2845  -522.8855  -329.2313 H6            1 RES     
   11685 H6         492.9024  -522.9368  -330.8843 H6            1 RES     
   11686 H6         489.9221  -523.0238  -330.0409 H6            1 RES     
   11687 H6         490.7993  -521.6022  -330.7256 H6            1 RES     
   11688 H6         490.5086  -523.0484  -331.7526 H6            1 RES     
   11689 C0         492.3562  -534.1315  -341.8860 C0            1 RES     
   11690 C0         491.7767  -533.1771  -342.9588 C0            1 RES     
   11691 C0         492.0469  -533.5165  -344.4408 C0            1 RES     
   11692 C0         493.4508  -533.1910  -345.0080 C0            1 RES     
   11693 C0         493.9002  -531.7492  -344.6919 C0            1 RES     
   11694 C0         495.0699  -531.2245  -345.5370 C0            1 RES     
   11695 C0         494.5984  -530.7512  -346.9218 C0            1 RES     
   11696 C0         495.7491  -530.1384  -347.7335 C0            1 RES     
   11697 C0         495.2168  -529.5071  -349.0267 C0            1 RES     
   11698 C0         496.2649  -529.0896  -350.0808 C0            1 RES     
   11699 C0         497.2939  -527.9973  -349.7192 C0            1 RES     
   11700 C0         498.4768  -528.4980  -348.8654 C0            1 RES     
   11701 C0         499.5669  -527.4441  -348.5759 C0            1 RES     
   11702 C0         500.6182  -527.1787  -349.6824 C0            1 RES     
   11703 C0         500.1599  -526.5119  -350.9885 C0            1 RES     
   11704 C0         499.4796  -525.1636  -350.7601 C0            1 RES     
   11705 H6         493.4295  -534.3461  -342.0792 H6            1 RES     
   11706 H6         491.8042  -535.0879  -342.0260 H6            1 RES     
   11707 H6         490.6746  -533.2342  -342.8425 H6            1 RES     
   11708 H6         492.0650  -532.1290  -342.8032 H6            1 RES     
   11709 H6         491.7785  -534.5732  -344.6550 H6            1 RES     
   11710 H6         491.3454  -532.8772  -345.0225 H6            1 RES     
   11711 H6         494.2190  -533.8993  -344.6289 H6            1 RES     
   11712 H6         493.3745  -533.3290  -346.1074 H6            1 RES     
   11713 H6         493.0574  -531.0287  -344.7817 H6            1 RES     
   11714 H6         494.2412  -531.7602  -343.6482 H6            1 RES     
   11715 H6         495.8821  -531.9815  -345.5993 H6            1 RES     
   11716 H6         495.4742  -530.3269  -345.0204 H6            1 RES     
   11717 H6         494.1497  -531.5917  -347.4916 H6            1 RES     
   11718 H6         493.8194  -529.9698  -346.7696 H6            1 RES     
   11719 H6         496.2159  -529.3440  -347.1197 H6            1 RES     
   11720 H6         496.4872  -530.9365  -347.9634 H6            1 RES     
   11721 H6         494.5672  -530.2551  -349.5328 H6            1 RES     
   11722 H6         494.5816  -528.6318  -348.7635 H6            1 RES     
   11723 H6         496.8003  -529.9834  -350.4675 H6            1 RES     
   11724 H6         495.6621  -528.6823  -350.9235 H6            1 RES     
   11725 H6         496.7884  -527.1267  -349.2477 H6            1 RES     
   11726 H6         497.6934  -527.6613  -350.6843 H6            1 RES     
   11727 H6         498.0836  -528.7900  -347.8815 H6            1 RES     
   11728 H6         498.9485  -529.3961  -349.3195 H6            1 RES     
   11729 H6         500.1643  -527.8559  -347.7317 H6            1 RES     
   11730 H6         499.1080  -526.5021  -348.2079 H6            1 RES     
   11731 H6         501.3905  -526.5148  -349.2346 H6            1 RES     
   11732 H6         501.1183  -528.1383  -349.9386 H6            1 RES     
   11733 H6         501.0614  -526.3435  -351.6172 H6            1 RES     
   11734 H6         499.5090  -527.1846  -351.5735 H6            1 RES     
   11735 H6         500.1639  -524.4746  -350.2209 H6            1 RES     
   11736 H6         499.2183  -524.7112  -351.7397 H6            1 RES     
   11737 H6         498.5461  -525.2853  -350.1738 H6            1 RES     
   11738 C0         497.0606  -544.7020  -336.1272 C0            1 RES     
   11739 C1         495.8474  -543.7525  -336.0438 C1            1 RES     
   11740 C1         494.6326  -544.3628  -335.4653 C1            1 RES     
   11741 S2         493.2489  -543.6004  -336.3266 S2            1 RES     
   11742 C1         494.3231  -542.1482  -336.3605 C1            1 RES     
   11743 C1         495.6643  -542.4819  -336.3865 C1            1 RES     
   11744 C1         494.9829  -545.7690  -335.5990 C1            1 RES     
   11745 C1         496.2892  -546.0023  -335.9180 C1            1 RES     
   11746 C1         496.6022  -547.3731  -335.9554 C1            1 RES     
   11747 C1         495.4863  -548.1705  -335.6053 C1            1 RES     
   11748 S2         494.1583  -547.1675  -335.2666 S2            1 RES     
   11749 H3         496.4136  -541.8069  -336.7664 H3            1 RES     
   11750 H3         497.5806  -547.7653  -336.2032 H3            1 RES     
   11751 N4         496.3441  -550.3889  -336.2454 N4            1 RES     
   11752 C1         496.3118  -551.7539  -336.2918 C1            1 RES     
   11753 C1         495.3292  -552.4727  -335.6002 C1            1 RES     
   11754 C1         494.3894  -551.7638  -334.8627 C1            1 RES     
   11755 N4         493.4065  -552.3524  -334.1381 N4            1 RES     
   11756 S2         492.6257  -551.0520  -333.4846 S2            1 RES     
   11757 N4         493.4603  -549.7559  -334.0785 N4            1 RES     
   11758 C1         494.4229  -550.3429  -334.8377 C1            1 RES     
   11759 C1         495.4256  -549.6521  -335.5517 C1            1 RES     
   11760 H5         497.0502  -552.2883  -336.8754 H5            1 RES     
   11761 C0         498.0109  -544.4782  -334.9063 C0            1 RES     
   11762 C0         498.6783  -543.0993  -334.8904 C0            1 RES     
   11763 C0         499.5039  -542.7611  -333.6451 C0            1 RES     
   11764 C0         498.7274  -542.7150  -332.3194 C0            1 RES     
   11765 C0         497.4064  -541.9236  -332.4096 C0            1 RES     
   11766 C0         496.8038  -541.6468  -331.0269 C0            1 RES     
   11767 C0         497.5072  -540.4578  -330.3538 C0            1 RES     
   11768 C0         496.9655  -540.2048  -328.9463 C0            1 RES     
   11769 C0         497.5206  -538.8902  -328.3895 C0            1 RES     
   11770 C0         497.3088  -538.6407  -326.8829 C0            1 RES     
   11771 C0         495.8660  -538.6360  -326.3393 C0            1 RES     
   11772 C0         495.2930  -540.0482  -326.0849 C0            1 RES     
   11773 C0         493.8770  -540.0822  -325.4762 C0            1 RES     
   11774 C0         493.7520  -539.8693  -323.9483 C0            1 RES     
   11775 C0         494.1088  -538.4922  -323.3693 C0            1 RES     
   11776 C0         493.3081  -537.3565  -324.0035 C0            1 RES     
   11777 H6         497.4006  -544.5763  -333.9836 H6            1 RES     
   11778 H6         498.7923  -545.2686  -334.8743 H6            1 RES     
   11779 H6         499.3722  -543.0517  -335.7280 H6            1 RES     
   11780 H6         497.9204  -542.3036  -335.0127 H6            1 RES     
   11781 H6         500.3603  -543.4621  -333.5419 H6            1 RES     
   11782 H6         499.9216  -541.7445  -333.8220 H6            1 RES     
   11783 H6         498.4899  -543.7449  -331.9751 H6            1 RES     
   11784 H6         499.4177  -542.2658  -331.5759 H6            1 RES     
   11785 H6         497.5362  -540.9586  -332.9467 H6            1 RES     
   11786 H6         496.6883  -542.5423  -332.9893 H6            1 RES     
   11787 H6         496.8405  -542.5683  -330.4045 H6            1 RES     
   11788 H6         495.7370  -541.3600  -331.1565 H6            1 RES     
   11789 H6         498.6018  -540.6248  -330.2790 H6            1 RES     
   11790 H6         497.3311  -539.5588  -330.9866 H6            1 RES     
   11791 H6         495.8614  -540.1210  -329.0049 H6            1 RES     
   11792 H6         497.2618  -541.0608  -328.3014 H6            1 RES     
   11793 H6         498.6217  -538.8675  -328.5473 H6            1 RES     
   11794 H6         497.0784  -538.0526  -328.9743 H6            1 RES     
   11795 H6         497.9186  -539.3505  -326.2833 H6            1 RES     
   11796 H6         497.7274  -537.6243  -326.7072 H6            1 RES     
   11797 H6         495.2045  -538.0324  -326.9977 H6            1 RES     
   11798 H6         495.9325  -538.1195  -325.3742 H6            1 RES     
   11799 H6         495.2032  -540.5639  -327.0511 H6            1 RES     
   11800 H6         495.9791  -540.6508  -325.4511 H6            1 RES     
   11801 H6         493.5063  -541.1199  -325.6350 H6            1 RES     
   11802 H6         493.1968  -539.4135  -326.0446 H6            1 RES     
   11803 H6         492.6892  -540.0670  -323.6864 H6            1 RES     
   11804 H6         494.3677  -540.6354  -323.4279 H6            1 RES     
   11805 H6         493.8829  -538.5130  -322.2812 H6            1 RES     
   11806 H6         495.1924  -538.2972  -323.4454 H6            1 RES     
   11807 H6         492.2198  -537.5343  -323.8723 H6            1 RES     
   11808 H6         493.5751  -536.3975  -323.5122 H6            1 RES     
   11809 H6         493.5356  -537.2663  -325.0852 H6            1 RES     
   11810 C0         497.8053  -544.7461  -337.5252 C0            1 RES     
   11811 C0         498.0077  -543.3758  -338.2173 C0            1 RES     
   11812 C0         498.8815  -543.3379  -339.4898 C0            1 RES     
   11813 C0         500.4186  -543.3960  -339.3080 C0            1 RES     
   11814 C0         500.9329  -542.3797  -338.2672 C0            1 RES     
   11815 C0         502.4409  -542.0945  -338.3157 C0            1 RES     
   11816 C0         502.7912  -541.0967  -339.4318 C0            1 RES     
   11817 C0         504.2842  -540.7365  -339.4221 C0            1 RES     
   11818 C0         504.5694  -539.6039  -340.4171 C0            1 RES     
   11819 C0         506.0523  -539.3075  -340.7287 C0            1 RES     
   11820 C0         506.9733  -538.8248  -339.5879 C0            1 RES     
   11821 C0         507.4808  -539.9503  -338.6633 C0            1 RES     
   11822 C0         508.4812  -539.5026  -337.5763 C0            1 RES     
   11823 C0         509.9622  -539.3263  -337.9950 C0            1 RES     
   11824 C0         510.3239  -538.1855  -338.9586 C0            1 RES     
   11825 C0         509.8946  -536.8136  -338.4424 C0            1 RES     
   11826 H6         498.7752  -545.2706  -337.3850 H6            1 RES     
   11827 H6         497.2134  -545.3481  -338.2507 H6            1 RES     
   11828 H6         496.9971  -543.0581  -338.5476 H6            1 RES     
   11829 H6         498.3842  -542.6012  -337.5361 H6            1 RES     
   11830 H6         498.5484  -544.1101  -340.2159 H6            1 RES     
   11831 H6         498.6834  -542.3459  -339.9544 H6            1 RES     
   11832 H6         500.7574  -544.4136  -339.0161 H6            1 RES     
   11833 H6         500.8519  -543.1663  -340.3044 H6            1 RES     
   11834 H6         500.3943  -541.4093  -338.3417 H6            1 RES     
   11835 H6         500.7238  -542.8211  -337.2838 H6            1 RES     
   11836 H6         503.0190  -543.0413  -338.3939 H6            1 RES     
   11837 H6         502.7149  -541.6014  -337.3577 H6            1 RES     
   11838 H6         502.5157  -541.5074  -340.4257 H6            1 RES     
   11839 H6         502.2034  -540.1669  -339.2567 H6            1 RES     
   11840 H6         504.5452  -540.3860  -338.4049 H6            1 RES     
   11841 H6         504.8709  -541.6432  -339.6835 H6            1 RES     
   11842 H6         504.1094  -539.8784  -341.3921 H6            1 RES     
   11843 H6         504.0699  -538.6764  -340.0576 H6            1 RES     
   11844 H6         506.5217  -540.1785  -341.2347 H6            1 RES     
   11845 H6         506.0182  -538.4796  -341.4722 H6            1 RES     
   11846 H6         506.4845  -538.0102  -339.0107 H6            1 RES     
   11847 H6         507.8423  -538.3898  -340.0974 H6            1 RES     
   11848 H6         506.6168  -540.3543  -338.1172 H6            1 RES     
   11849 H6         507.9271  -540.7820  -339.2501 H6            1 RES     
   11850 H6         508.5091  -540.3329  -336.8354 H6            1 RES     
   11851 H6         508.0955  -538.6115  -337.0373 H6            1 RES     
   11852 H6         510.5389  -539.1537  -337.0593 H6            1 RES     
   11853 H6         510.3263  -540.2809  -338.4339 H6            1 RES     
   11854 H6         511.4295  -538.1808  -339.0779 H6            1 RES     
   11855 H6         509.9152  -538.3698  -339.9672 H6            1 RES     
   11856 H6         510.3570  -536.6137  -337.4526 H6            1 RES     
   11857 H6         510.2271  -536.0302  -339.1554 H6            1 RES     
   11858 H6         508.7910  -536.7529  -338.3499 H6            1 RES     
   11859 C0         497.0237  -557.4949  -335.5533 C0            1 RES     
   11860 C1         496.1296  -556.2380  -335.5219 C1            1 RES     
   11861 C1         494.6938  -556.5038  -335.7469 C1            1 RES     
   11862 S2         494.0689  -555.0717  -336.6394 S2            1 RES     
   11863 C1         495.2878  -554.1713  -335.6557 C1            1 RES     
   11864 C1         496.3840  -554.9481  -335.3301 C1            1 RES     
   11865 C1         494.7840  -557.8343  -336.3297 C1            1 RES     
   11866 C1         496.0100  -558.4233  -336.2165 C1            1 RES     
   11867 C1         496.0290  -559.7372  -336.7181 C1            1 RES     
   11868 C1         494.7507  -560.1372  -337.1759 C1            1 RES     
   11869 S2         493.6466  -558.8662  -336.9523 S2            1 RES     
   11870 H3         497.3387  -554.5136  -335.0830 H3            1 RES     
   11871 H3         496.9092  -560.3679  -336.7335 H3            1 RES     
   11872 N4         495.3596  -562.2212  -338.3392 N4            1 RES     
   11873 C1         495.0884  -563.4014  -338.9717 C1            1 RES     
   11874 C1         493.7763  -563.8812  -339.0647 C1            1 RES     
   11875 C1         492.7567  -563.1290  -338.4949 C1            1 RES     
   11876 N4         491.4539  -563.5034  -338.5052 N4            1 RES     
   11877 S2         490.7259  -562.2622  -337.6945 S2            1 RES     
   11878 N4         491.9769  -561.2474  -337.3283 N4            1 RES     
   11879 C1         493.0501  -561.8937  -337.8558 C1            1 RES     
   11880 C1         494.3847  -561.4394  -337.7859 C1            1 RES     
   11881 H5         495.8958  -563.9711  -339.4132 H5            1 RES     
   11882 C0         497.2975  -558.0036  -334.1007 C0            1 RES     
   11883 C0         498.1299  -557.0341  -333.2556 C0            1 RES     
   11884 C0         498.3074  -557.4034  -331.7795 C0            1 RES     
   11885 C0         497.0176  -557.4695  -330.9462 C0            1 RES     
   11886 C0         496.0833  -556.2618  -331.1653 C0            1 RES     
   11887 C0         494.9600  -556.2043  -330.1229 C0            1 RES     
   11888 C0         495.4721  -555.6092  -328.8019 C0            1 RES     
   11889 C0         494.3845  -555.6023  -327.7269 C0            1 RES     
   11890 C0         494.8496  -554.8078  -326.5027 C0            1 RES     
   11891 C0         493.9965  -554.9537  -325.2267 C0            1 RES     
   11892 C0         492.5018  -554.5829  -325.3015 C0            1 RES     
   11893 C0         491.6145  -555.6958  -325.9027 C0            1 RES     
   11894 C0         490.1041  -555.3881  -325.9302 C0            1 RES     
   11895 C0         489.3080  -555.6043  -324.6206 C0            1 RES     
   11896 C0         489.6049  -554.6887  -323.4238 C0            1 RES     
   11897 C0         489.4434  -553.2067  -323.7562 C0            1 RES     
   11898 H6         496.3145  -558.1391  -333.6018 H6            1 RES     
   11899 H6         497.7975  -558.9964  -334.1263 H6            1 RES     
   11900 H6         499.1339  -556.9988  -333.6752 H6            1 RES     
   11901 H6         497.6941  -556.0187  -333.2939 H6            1 RES     
   11902 H6         498.8551  -558.3656  -331.6807 H6            1 RES     
   11903 H6         498.9476  -556.6060  -331.3397 H6            1 RES     
   11904 H6         496.4491  -558.3938  -331.1874 H6            1 RES     
   11905 H6         497.3407  -557.5437  -329.8874 H6            1 RES     
   11906 H6         496.6392  -555.2987  -331.1506 H6            1 RES     
   11907 H6         495.6250  -556.3753  -332.1710 H6            1 RES     
   11908 H6         494.5146  -557.2148  -329.9877 H6            1 RES     
   11909 H6         494.1642  -555.5234  -330.4971 H6            1 RES     
   11910 H6         496.3413  -556.1783  -328.4118 H6            1 RES     
   11911 H6         495.7989  -554.5646  -329.0062 H6            1 RES     
   11912 H6         493.4832  -555.1079  -328.1426 H6            1 RES     
   11913 H6         494.1633  -556.6564  -327.4504 H6            1 RES     
   11914 H6         495.8725  -555.1433  -326.2217 H6            1 RES     
   11915 H6         494.9136  -553.7344  -326.7906 H6            1 RES     
   11916 H6         494.0939  -555.9798  -324.8110 H6            1 RES     
   11917 H6         494.4689  -554.2606  -324.4950 H6            1 RES     
   11918 H6         492.3675  -553.6144  -325.8302 H6            1 RES     
   11919 H6         492.1979  -554.4351  -324.2582 H6            1 RES     
   11920 H6         491.8992  -555.8341  -326.9550 H6            1 RES     
   11921 H6         491.7819  -556.6652  -325.3849 H6            1 RES     
   11922 H6         489.6606  -556.1225  -326.6398 H6            1 RES     
   11923 H6         489.9235  -554.3819  -326.3635 H6            1 RES     
   11924 H6         488.2340  -555.4680  -324.8762 H6            1 RES     
   11925 H6         489.4374  -556.6588  -324.2922 H6            1 RES     
   11926 H6         488.8872  -554.9450  -322.6147 H6            1 RES     
   11927 H6         490.6073  -554.8897  -323.0081 H6            1 RES     
   11928 H6         488.4139  -553.0050  -324.1207 H6            1 RES     
   11929 H6         489.6238  -552.6017  -322.8430 H6            1 RES     
   11930 H6         490.1729  -552.8915  -324.5298 H6            1 RES     
   11931 C0         498.3213  -557.3942  -336.4572 C0            1 RES     
   11932 C0         499.0923  -556.0540  -336.3714 C0            1 RES     
   11933 C0         500.4565  -555.9649  -337.0893 C0            1 RES     
   11934 C0         501.6746  -556.6308  -336.4026 C0            1 RES     
   11935 C0         501.8153  -556.2275  -334.9200 C0            1 RES     
   11936 C0         503.1856  -556.5118  -334.2881 C0            1 RES     
   11937 C0         504.2135  -555.4298  -334.6581 C0            1 RES     
   11938 C0         505.5576  -555.6597  -333.9516 C0            1 RES     
   11939 C0         506.4981  -554.4705  -334.1876 C0            1 RES     
   11940 C0         507.9748  -554.6583  -333.7777 C0            1 RES     
   11941 C0         508.3122  -554.9041  -332.2917 C0            1 RES     
   11942 C0         508.0857  -556.3556  -331.8216 C0            1 RES     
   11943 C0         508.5099  -556.6455  -330.3660 C0            1 RES     
   11944 C0         510.0129  -556.9071  -330.0968 C0            1 RES     
   11945 C0         511.0054  -555.7480  -330.2753 C0            1 RES     
   11946 C0         510.6580  -554.5315  -329.4196 C0            1 RES     
   11947 H6         498.9829  -558.2528  -336.2110 H6            1 RES     
   11948 H6         498.0440  -557.4961  -337.5304 H6            1 RES     
   11949 H6         498.4465  -555.3073  -336.8779 H6            1 RES     
   11950 H6         499.2398  -555.7078  -335.3397 H6            1 RES     
   11951 H6         500.3680  -556.3115  -338.1412 H6            1 RES     
   11952 H6         500.7019  -554.8797  -337.1228 H6            1 RES     
   11953 H6         501.6272  -557.7392  -336.4717 H6            1 RES     
   11954 H6         502.5669  -556.2929  -336.9711 H6            1 RES     
   11955 H6         501.5786  -555.1518  -334.7642 H6            1 RES     
   11956 H6         501.0802  -556.8305  -334.3709 H6            1 RES     
   11957 H6         503.5338  -557.5360  -334.5459 H6            1 RES     
   11958 H6         503.0583  -556.4583  -333.1850 H6            1 RES     
   11959 H6         504.3728  -555.3994  -335.7564 H6            1 RES     
   11960 H6         503.8073  -554.4457  -334.3311 H6            1 RES     
   11961 H6         505.3630  -555.7448  -332.8650 H6            1 RES     
   11962 H6         506.0086  -556.5976  -334.3406 H6            1 RES     
   11963 H6         506.5168  -554.2580  -335.2794 H6            1 RES     
   11964 H6         506.0790  -553.5748  -333.6767 H6            1 RES     
   11965 H6         508.4492  -555.4500  -334.3968 H6            1 RES     
   11966 H6         508.4622  -553.6958  -334.0523 H6            1 RES     
   11967 H6         507.7761  -554.1761  -331.6449 H6            1 RES     
   11968 H6         509.3847  -554.6872  -332.2105 H6            1 RES     
   11969 H6         507.0060  -556.5578  -331.8574 H6            1 RES     
   11970 H6         508.5866  -557.0804  -332.4992 H6            1 RES     
   11971 H6         508.0180  -557.6071  -330.0970 H6            1 RES     
   11972 H6         508.0954  -555.8763  -329.6805 H6            1 RES     
   11973 H6         510.0930  -557.2407  -329.0384 H6            1 RES     
   11974 H6         510.3487  -557.7540  -330.7344 H6            1 RES     
   11975 H6         512.0102  -556.1123  -329.9686 H6            1 RES     
   11976 H6         511.1017  -555.4646  -331.3377 H6            1 RES     
   11977 H6         510.6197  -554.8152  -328.3464 H6            1 RES     
   11978 H6         511.4361  -553.7511  -329.5539 H6            1 RES     
   11979 H6         509.6804  -554.1023  -329.7198 H6            1 RES     
   11980 C0         494.2276  -568.9492  -340.5504 C0            1 RES     
   11981 C1         493.6914  -567.5219  -340.3144 C1            1 RES     
   11982 C1         492.5175  -567.1662  -341.1380 C1            1 RES     
   11983 S2         492.6877  -565.4105  -341.4935 S2            1 RES     
   11984 C1         493.4367  -565.3499  -339.8505 C1            1 RES     
   11985 C1         494.0687  -566.5319  -339.5125 C1            1 RES     
   11986 C1         492.6145  -568.2027  -342.1551 C1            1 RES     
   11987 C1         493.4957  -569.2038  -341.8653 C1            1 RES     
   11988 C1         493.4961  -570.2235  -342.8340 C1            1 RES     
   11989 C1         492.5422  -569.9754  -343.8501 C1            1 RES     
   11990 S2         491.7371  -568.5156  -343.5257 S2            1 RES     
   11991 H3         494.8528  -566.5695  -338.7742 H3            1 RES     
   11992 H3         494.1345  -571.0973  -342.7947 H3            1 RES     
   11993 N4         493.2142  -571.6958  -345.4796 N4            1 RES     
   11994 C1         493.0546  -572.4528  -346.6056 C1            1 RES     
   11995 C1         491.8819  -572.3702  -347.3661 C1            1 RES     
   11996 C1         490.8827  -571.5014  -346.9457 C1            1 RES     
   11997 N4         489.6989  -571.3535  -347.5894 N4            1 RES     
   11998 S2         488.9294  -570.2301  -346.6548 S2            1 RES     
   11999 N4         490.0233  -569.8984  -345.4621 N4            1 RES     
   12000 C1         491.0688  -570.7056  -345.7827 C1            1 RES     
   12001 C1         492.2669  -570.8122  -345.0440 C1            1 RES     
   12002 H5         493.8463  -573.1209  -346.9194 H5            1 RES     
   12003 C0         493.6685  -569.9261  -339.4655 C0            1 RES     
   12004 C0         494.1661  -569.6225  -338.0487 C0            1 RES     
   12005 C0         493.5406  -570.4480  -336.9201 C0            1 RES     
   12006 C0         492.0247  -570.2808  -336.7294 C0            1 RES     
   12007 C0         491.5643  -568.8086  -336.7363 C0            1 RES     
   12008 C0         490.1151  -568.6546  -336.2592 C0            1 RES     
   12009 C0         490.0379  -568.7049  -334.7252 C0            1 RES     
   12010 C0         488.5938  -568.6182  -334.2297 C0            1 RES     
   12011 C0         488.5615  -568.4467  -332.7079 C0            1 RES     
   12012 C0         487.1925  -568.6398  -332.0256 C0            1 RES     
   12013 C0         486.0202  -567.7446  -332.4747 C0            1 RES     
   12014 C0         485.3311  -568.2267  -333.7709 C0            1 RES     
   12015 C0         484.1105  -567.3954  -334.2137 C0            1 RES     
   12016 C0         482.7605  -567.6812  -333.5127 C0            1 RES     
   12017 C0         482.6208  -567.3333  -332.0233 C0            1 RES     
   12018 C0         482.9298  -565.8675  -331.7250 C0            1 RES     
   12019 H6         492.5618  -569.8337  -339.4691 H6            1 RES     
   12020 H6         493.9158  -570.9779  -339.7278 H6            1 RES     
   12021 H6         495.2336  -569.8343  -338.0145 H6            1 RES     
   12022 H6         494.0089  -568.5553  -337.8062 H6            1 RES     
   12023 H6         493.7752  -571.5268  -337.0489 H6            1 RES     
   12024 H6         494.0339  -570.1069  -335.9822 H6            1 RES     
   12025 H6         491.4731  -570.8186  -337.5308 H6            1 RES     
   12026 H6         491.7808  -570.7760  -335.7670 H6            1 RES     
   12027 H6         492.2208  -568.1652  -336.1104 H6            1 RES     
   12028 H6         491.6305  -568.4455  -337.7843 H6            1 RES     
   12029 H6         489.4722  -569.4243  -336.7410 H6            1 RES     
   12030 H6         489.7449  -567.6526  -336.5688 H6            1 RES     
   12031 H6         490.4851  -569.6396  -334.3280 H6            1 RES     
   12032 H6         490.6188  -567.8414  -334.3294 H6            1 RES     
   12033 H6         488.1169  -567.7302  -334.6917 H6            1 RES     
   12034 H6         488.0670  -569.5499  -334.5313 H6            1 RES     
   12035 H6         489.2380  -569.1992  -332.2452 H6            1 RES     
   12036 H6         488.9629  -567.4373  -332.4648 H6            1 RES     
   12037 H6         486.8774  -569.7040  -332.0838 H6            1 RES     
   12038 H6         487.3821  -568.4155  -330.9520 H6            1 RES     
   12039 H6         486.3465  -566.6846  -332.5480 H6            1 RES     
   12040 H6         485.2899  -567.8103  -331.6593 H6            1 RES     
   12041 H6         486.0511  -568.1429  -334.5968 H6            1 RES     
   12042 H6         485.0382  -569.2963  -333.6950 H6            1 RES     
   12043 H6         483.9269  -567.6732  -335.2760 H6            1 RES     
   12044 H6         484.3588  -566.3131  -334.2087 H6            1 RES     
   12045 H6         481.9894  -567.0935  -334.0580 H6            1 RES     
   12046 H6         482.5090  -568.7565  -333.6437 H6            1 RES     
   12047 H6         481.5694  -567.5358  -331.7251 H6            1 RES     
   12048 H6         483.2415  -567.9992  -331.3993 H6            1 RES     
   12049 H6         482.2617  -565.2063  -332.3163 H6            1 RES     
   12050 H6         482.7656  -565.6680  -330.6454 H6            1 RES     
   12051 H6         483.9858  -565.6278  -331.9644 H6            1 RES     
   12052 C0         495.7907  -569.0678  -340.7818 C0            1 RES     
   12053 C0         496.6708  -568.1909  -339.8576 C0            1 RES     
   12054 C0         498.1998  -568.3988  -339.9158 C0            1 RES     
   12055 C0         498.7852  -569.6339  -339.1872 C0            1 RES     
   12056 C0         498.2754  -569.7654  -337.7369 C0            1 RES     
   12057 C0         499.0916  -570.7029  -336.8352 C0            1 RES     
   12058 C0         500.3594  -570.0136  -336.3046 C0            1 RES     
   12059 C0         501.1281  -570.9153  -335.3275 C0            1 RES     
   12060 C0         502.2779  -570.1388  -334.6722 C0            1 RES     
   12061 C0         503.3101  -570.9645  -333.8742 C0            1 RES     
   12062 C0         502.8407  -571.7423  -332.6262 C0            1 RES     
   12063 C0         502.1395  -573.0799  -332.9392 C0            1 RES     
   12064 C0         501.7505  -573.9193  -331.7036 C0            1 RES     
   12065 C0         502.8581  -574.7784  -331.0439 C0            1 RES     
   12066 C0         504.0192  -574.0644  -330.3349 C0            1 RES     
   12067 C0         503.5492  -573.1151  -329.2345 C0            1 RES     
   12068 H6         496.0725  -570.1401  -340.7030 H6            1 RES     
   12069 H6         496.0464  -568.7406  -341.8146 H6            1 RES     
   12070 H6         496.5052  -567.1465  -340.1939 H6            1 RES     
   12071 H6         496.3714  -568.2427  -338.8024 H6            1 RES     
   12072 H6         498.5594  -568.3630  -340.9665 H6            1 RES     
   12073 H6         498.6373  -567.5201  -339.3909 H6            1 RES     
   12074 H6         498.5618  -570.5751  -339.7346 H6            1 RES     
   12075 H6         499.8869  -569.4938  -339.1877 H6            1 RES     
   12076 H6         498.2075  -568.7749  -337.2353 H6            1 RES     
   12077 H6         497.2659  -570.1914  -337.8081 H6            1 RES     
   12078 H6         499.3136  -571.6587  -337.3584 H6            1 RES     
   12079 H6         498.4655  -570.9339  -335.9461 H6            1 RES     
   12080 H6         501.0268  -569.7215  -337.1423 H6            1 RES     
   12081 H6         500.0467  -569.0924  -335.7622 H6            1 RES     
   12082 H6         500.4254  -571.2393  -334.5357 H6            1 RES     
   12083 H6         501.5177  -571.7938  -335.8850 H6            1 RES     
   12084 H6         502.8572  -569.6366  -335.4781 H6            1 RES     
   12085 H6         501.8490  -569.3452  -334.0202 H6            1 RES     
   12086 H6         503.8583  -571.6547  -334.5512 H6            1 RES     
   12087 H6         504.0462  -570.2115  -333.5128 H6            1 RES     
   12088 H6         502.2141  -571.0940  -331.9760 H6            1 RES     
   12089 H6         503.7627  -571.9661  -332.0751 H6            1 RES     
   12090 H6         501.1925  -572.8538  -333.4492 H6            1 RES     
   12091 H6         502.7514  -573.7034  -333.6264 H6            1 RES     
   12092 H6         501.0134  -574.6683  -332.0709 H6            1 RES     
   12093 H6         501.2174  -573.2905  -330.9594 H6            1 RES     
   12094 H6         502.3558  -575.4139  -330.2812 H6            1 RES     
   12095 H6         503.2857  -575.4612  -331.8104 H6            1 RES     
   12096 H6         504.6622  -574.8433  -329.8698 H6            1 RES     
   12097 H6         504.6647  -573.5365  -331.0580 H6            1 RES     
   12098 H6         502.9482  -573.6676  -328.4814 H6            1 RES     
   12099 H6         504.4318  -572.6704  -328.7287 H6            1 RES     
   12100 H6         502.9391  -572.2907  -329.6566 H6            1 RES     
   12101 C0         491.9923  -576.5737  -350.5933 C0            1 RES     
   12102 C1         491.6980  -575.1868  -349.9846 C1            1 RES     
   12103 C1         491.1557  -574.2017  -350.9428 C1            1 RES     
   12104 S2         491.8131  -572.6085  -350.4257 S2            1 RES     
   12105 C1         491.6809  -573.3121  -348.7670 C1            1 RES     
   12106 C1         491.8305  -574.6863  -348.7610 C1            1 RES     
   12107 C1         491.5232  -574.8531  -352.1913 C1            1 RES     
   12108 C1         491.9445  -576.1442  -352.0571 C1            1 RES     
   12109 C1         492.2094  -576.7598  -353.2937 C1            1 RES     
   12110 C1         491.9266  -575.8933  -354.3766 C1            1 RES     
   12111 S2         491.3661  -574.4056  -353.7792 S2            1 RES     
   12112 H3         492.1418  -575.2231  -347.8799 H3            1 RES     
   12113 H3         492.5673  -577.7762  -353.4010 H3            1 RES     
   12114 N4         492.9463  -577.1783  -356.2140 N4            1 RES     
   12115 C1         493.2006  -577.4573  -357.5270 C1            1 RES     
   12116 C1         492.5758  -576.7323  -358.5490 C1            1 RES     
   12117 C1         491.6882  -575.7239  -358.1951 C1            1 RES     
   12118 N4         491.0109  -574.9716  -359.0966 N4            1 RES     
   12119 S2         490.1236  -573.9737  -358.1247 S2            1 RES     
   12120 N4         490.5549  -574.4311  -356.5970 N4            1 RES     
   12121 C1         491.4465  -575.4314  -356.8253 C1            1 RES     
   12122 C1         492.0987  -576.1804  -355.8222 C1            1 RES     
   12123 H5         493.8986  -578.2439  -357.7827 H5            1 RES     
   12124 C0         490.8046  -577.5518  -350.3163 C0            1 RES     
   12125 C0         490.6125  -577.8824  -348.8328 C0            1 RES     
   12126 C0         489.3765  -578.7154  -348.4794 C0            1 RES     
   12127 C0         488.0196  -578.0705  -348.8035 C0            1 RES     
   12128 C0         487.9151  -576.6001  -348.3491 C0            1 RES     
   12129 C0         486.4758  -576.0755  -348.4174 C0            1 RES     
   12130 C0         485.6665  -576.5434  -347.1977 C0            1 RES     
   12131 C0         484.2097  -576.0855  -347.2777 C0            1 RES     
   12132 C0         483.4878  -576.3703  -345.9570 C0            1 RES     
   12133 C0         481.9515  -576.2418  -345.9745 C0            1 RES     
   12134 C0         481.3365  -574.8910  -346.3919 C0            1 RES     
   12135 C0         481.2721  -574.6836  -347.9217 C0            1 RES     
   12136 C0         480.6002  -573.3735  -348.3789 C0            1 RES     
   12137 C0         479.0532  -573.3395  -348.4135 C0            1 RES     
   12138 C0         478.2892  -573.4197  -347.0835 C0            1 RES     
   12139 C0         478.6966  -572.3257  -346.0984 C0            1 RES     
   12140 H6         489.8764  -577.0651  -350.6839 H6            1 RES     
   12141 H6         490.9370  -578.4938  -350.8920 H6            1 RES     
   12142 H6         491.4691  -578.4692  -348.5053 H6            1 RES     
   12143 H6         490.5697  -576.9538  -348.2342 H6            1 RES     
   12144 H6         489.4290  -579.7160  -348.9607 H6            1 RES     
   12145 H6         489.4170  -578.8704  -347.3778 H6            1 RES     
   12146 H6         487.8256  -578.1082  -349.8975 H6            1 RES     
   12147 H6         487.2541  -578.7021  -348.3074 H6            1 RES     
   12148 H6         488.3034  -576.4558  -347.3171 H6            1 RES     
   12149 H6         488.5435  -575.9950  -349.0372 H6            1 RES     
   12150 H6         486.0057  -576.3788  -349.3792 H6            1 RES     
   12151 H6         486.5017  -574.9642  -348.3812 H6            1 RES     
   12152 H6         485.6777  -577.6491  -347.1047 H6            1 RES     
   12153 H6         486.1429  -576.1093  -346.2897 H6            1 RES     
   12154 H6         484.1949  -574.9911  -347.4551 H6            1 RES     
   12155 H6         483.7213  -576.6272  -348.1171 H6            1 RES     
   12156 H6         483.6995  -577.4180  -345.6484 H6            1 RES     
   12157 H6         483.9118  -575.6969  -345.1787 H6            1 RES     
   12158 H6         481.5023  -577.0496  -346.5917 H6            1 RES     
   12159 H6         481.6442  -576.4291  -344.9211 H6            1 RES     
   12160 H6         481.8573  -574.0523  -345.8812 H6            1 RES     
   12161 H6         480.3084  -574.9225  -346.0117 H6            1 RES     
   12162 H6         482.2999  -574.6293  -348.3067 H6            1 RES     
   12163 H6         480.7767  -575.5438  -348.4222 H6            1 RES     
   12164 H6         480.8968  -573.2391  -349.4435 H6            1 RES     
   12165 H6         481.0212  -572.5097  -347.8224 H6            1 RES     
   12166 H6         478.7678  -572.3784  -348.8953 H6            1 RES     
   12167 H6         478.6912  -574.1588  -349.0724 H6            1 RES     
   12168 H6         477.2067  -573.3025  -347.3069 H6            1 RES     
   12169 H6         478.3929  -574.4181  -346.6247 H6            1 RES     
   12170 H6         478.5357  -571.3237  -346.5494 H6            1 RES     
   12171 H6         478.0786  -572.4074  -345.1798 H6            1 RES     
   12172 H6         479.7621  -572.4290  -345.8089 H6            1 RES     
   12173 C0         493.4186  -577.1809  -350.2649 C0            1 RES     
   12174 C0         493.9012  -576.9999  -348.8048 C0            1 RES     
   12175 C0         495.1980  -577.7246  -348.3837 C0            1 RES     
   12176 C0         495.1107  -579.2436  -348.0941 C0            1 RES     
   12177 C0         493.9550  -579.6007  -347.1361 C0            1 RES     
   12178 C0         494.0405  -580.9920  -346.4921 C0            1 RES     
   12179 C0         495.0069  -581.0023  -345.2963 C0            1 RES     
   12180 C0         495.0225  -582.3670  -344.5919 C0            1 RES     
   12181 C0         495.8452  -582.2939  -343.2987 C0            1 RES     
   12182 C0         496.1870  -583.6349  -342.6140 C0            1 RES     
   12183 C0         495.0370  -584.5178  -342.0845 C0            1 RES     
   12184 C0         494.3257  -585.3511  -343.1701 C0            1 RES     
   12185 C0         493.2383  -586.3143  -342.6478 C0            1 RES     
   12186 C0         493.7044  -587.6716  -342.0642 C0            1 RES     
   12187 C0         494.4988  -587.6736  -340.7491 C0            1 RES     
   12188 C0         493.7550  -586.9875  -339.6050 C0            1 RES     
   12189 H6         493.4135  -578.2541  -350.5544 H6            1 RES     
   12190 H6         494.1950  -576.6813  -350.8867 H6            1 RES     
   12191 H6         494.1234  -575.9180  -348.6978 H6            1 RES     
   12192 H6         493.1301  -577.2470  -348.0630 H6            1 RES     
   12193 H6         496.0153  -577.5149  -349.1066 H6            1 RES     
   12194 H6         495.4928  -577.2627  -347.4147 H6            1 RES     
   12195 H6         494.9978  -579.8322  -349.0302 H6            1 RES     
   12196 H6         496.0818  -579.5219  -347.6327 H6            1 RES     
   12197 H6         493.8499  -578.8486  -346.3232 H6            1 RES     
   12198 H6         493.0415  -579.5873  -347.7452 H6            1 RES     
   12199 H6         494.2948  -581.7632  -347.2519 H6            1 RES     
   12200 H6         493.0343  -581.2293  -346.0834 H6            1 RES     
   12201 H6         496.0358  -580.7414  -345.6213 H6            1 RES     
   12202 H6         494.6591  -580.2342  -344.5685 H6            1 RES     
   12203 H6         493.9791  -582.6297  -344.3314 H6            1 RES     
   12204 H6         495.4518  -583.1210  -345.2859 H6            1 RES     
   12205 H6         496.8244  -581.8245  -343.5399 H6            1 RES     
   12206 H6         495.3206  -581.6283  -342.5771 H6            1 RES     
   12207 H6         496.8458  -584.2453  -343.2686 H6            1 RES     
   12208 H6         496.7912  -583.3449  -341.7250 H6            1 RES     
   12209 H6         494.3156  -583.9079  -341.4985 H6            1 RES     
   12210 H6         495.5196  -585.2143  -341.3874 H6            1 RES     
   12211 H6         493.8024  -584.6556  -343.8412 H6            1 RES     
   12212 H6         495.0569  -585.9228  -343.7815 H6            1 RES     
   12213 H6         492.6368  -586.5985  -343.5402 H6            1 RES     
   12214 H6         492.5484  -585.7834  -341.9582 H6            1 RES     
   12215 H6         492.7858  -588.2740  -341.8875 H6            1 RES     
   12216 H6         494.3041  -588.2051  -342.8337 H6            1 RES     
   12217 H6         494.6756  -588.7331  -340.4620 H6            1 RES     
   12218 H6         495.5001  -587.2301  -340.8867 H6            1 RES     
   12219 H6         492.7726  -587.4778  -339.4369 H6            1 RES     
   12220 H6         494.3557  -587.0659  -338.6746 H6            1 RES     
   12221 H6         493.5947  -585.9124  -339.8252 H6            1 RES     
   12222 C0         493.3951  -579.5350  -362.9728 C0            1 RES     
   12223 C1         493.1220  -578.3819  -361.9847 C1            1 RES     
   12224 C1         493.3074  -577.0317  -362.5552 C1            1 RES     
   12225 S2         493.9334  -576.0168  -361.2076 S2            1 RES     
   12226 C1         492.8901  -577.0783  -360.1835 C1            1 RES     
   12227 C1         492.7479  -578.3484  -360.7103 C1            1 RES     
   12228 C1         494.0922  -577.3736  -363.7322 C1            1 RES     
   12229 C1         494.1375  -578.7073  -364.0182 C1            1 RES     
   12230 C1         494.8359  -578.9837  -365.2075 C1            1 RES     
   12231 C1         495.2800  -577.7963  -365.8372 C1            1 RES     
   12232 S2         494.8039  -576.4535  -364.9125 S2            1 RES     
   12233 H3         492.4887  -579.1955  -360.0966 H3            1 RES     
   12234 H3         494.9958  -579.9804  -365.5994 H3            1 RES     
   12235 N4         496.7817  -578.7625  -367.5337 N4            1 RES     
   12236 C1         497.5729  -578.7152  -368.6464 C1            1 RES     
   12237 C1         497.6676  -577.5459  -369.4108 C1            1 RES     
   12238 C1         496.9344  -576.4354  -369.0117 C1            1 RES     
   12239 N4         496.9318  -575.2583  -369.6838 N4            1 RES     
   12240 S2         495.9015  -574.3392  -368.7776 S2            1 RES     
   12241 N4         495.4514  -575.3504  -367.5512 N4            1 RES     
   12242 C1         496.1295  -576.4922  -367.8415 C1            1 RES     
   12243 C1         496.0627  -577.6871  -367.0930 C1            1 RES     
   12244 H5         498.1399  -579.5895  -368.9389 H5            1 RES     
   12245 C0         492.0550  -580.0468  -363.5944 C0            1 RES     
   12246 C0         491.1170  -580.7054  -362.5779 C0            1 RES     
   12247 C0         489.7272  -581.0940  -363.0920 C0            1 RES     
   12248 C0         488.8455  -579.9335  -363.5802 C0            1 RES     
   12249 C0         488.8250  -578.7306  -362.6149 C0            1 RES     
   12250 C0         487.7271  -577.7217  -362.9729 C0            1 RES     
   12251 C0         486.3597  -578.1985  -362.4586 C0            1 RES     
   12252 C0         485.2394  -577.2388  -362.8611 C0            1 RES     
   12253 C0         483.9343  -577.6155  -362.1531 C0            1 RES     
   12254 C0         482.6518  -576.9361  -362.6734 C0            1 RES     
   12255 C0         482.5876  -575.3957  -362.6670 C0            1 RES     
   12256 C0         483.3042  -574.7386  -363.8679 C0            1 RES     
   12257 C0         483.2023  -573.2016  -363.9324 C0            1 RES     
   12258 C0         481.9006  -572.5966  -364.5110 C0            1 RES     
   12259 C0         480.5948  -572.7801  -363.7236 C0            1 RES     
   12260 C0         480.6857  -572.2526  -362.2930 C0            1 RES     
   12261 H6         491.5306  -579.1699  -364.0296 H6            1 RES     
   12262 H6         492.2603  -580.7577  -364.4243 H6            1 RES     
   12263 H6         491.5798  -581.6329  -362.2447 H6            1 RES     
   12264 H6         490.9748  -580.0459  -361.7020 H6            1 RES     
   12265 H6         489.8075  -581.8551  -363.8981 H6            1 RES     
   12266 H6         489.2050  -581.5699  -362.2317 H6            1 RES     
   12267 H6         489.1951  -579.5740  -364.5723 H6            1 RES     
   12268 H6         487.8298  -580.3581  -363.7186 H6            1 RES     
   12269 H6         488.6922  -579.0487  -361.5577 H6            1 RES     
   12270 H6         489.8100  -578.2230  -362.6968 H6            1 RES     
   12271 H6         487.7252  -577.5348  -364.0697 H6            1 RES     
   12272 H6         487.9483  -576.7603  -362.4593 H6            1 RES     
   12273 H6         486.1096  -579.2066  -362.8493 H6            1 RES     
   12274 H6         486.4181  -578.2564  -361.3482 H6            1 RES     
   12275 H6         485.5246  -576.2145  -362.5463 H6            1 RES     
   12276 H6         485.1170  -577.2918  -363.9650 H6            1 RES     
   12277 H6         483.7641  -578.7091  -362.2675 H6            1 RES     
   12278 H6         484.0564  -577.4047  -361.0670 H6            1 RES     
   12279 H6         482.4050  -577.3038  -363.6928 H6            1 RES     
   12280 H6         481.8486  -577.2994  -361.9938 H6            1 RES     
   12281 H6         482.9527  -574.9954  -361.6965 H6            1 RES     
   12282 H6         481.5192  -575.1600  -362.7410 H6            1 RES     
   12283 H6         484.3791  -574.9525  -363.7882 H6            1 RES     
   12284 H6         482.9518  -575.1701  -364.8298 H6            1 RES     
   12285 H6         483.9915  -572.8777  -364.6478 H6            1 RES     
   12286 H6         483.4650  -572.7562  -362.9497 H6            1 RES     
   12287 H6         482.0736  -571.5017  -364.6038 H6            1 RES     
   12288 H6         481.7460  -572.9941  -365.5381 H6            1 RES     
   12289 H6         479.7972  -572.2156  -364.2534 H6            1 RES     
   12290 H6         480.2699  -573.8348  -363.7321 H6            1 RES     
   12291 H6         480.9585  -571.1761  -362.2973 H6            1 RES     
   12292 H6         479.7013  -572.3696  -361.7932 H6            1 RES     
   12293 H6         481.4397  -572.8181  -361.7086 H6            1 RES     
   12294 C0         494.3414  -580.6887  -362.4396 C0            1 RES     
   12295 C0         494.0920  -581.1348  -360.9780 C0            1 RES     
   12296 C0         494.8603  -582.3723  -360.4654 C0            1 RES     
   12297 C0         494.3513  -583.7672  -360.9058 C0            1 RES     
   12298 C0         492.8341  -583.9428  -360.6872 C0            1 RES     
   12299 C0         492.3286  -585.3924  -360.7168 C0            1 RES     
   12300 C0         492.5825  -586.1063  -359.3789 C0            1 RES     
   12301 C0         491.9935  -587.5247  -359.3726 C0            1 RES     
   12302 C0         492.0940  -588.1412  -357.9711 C0            1 RES     
   12303 C0         491.7984  -589.6520  -357.8519 C0            1 RES     
   12304 C0         490.3884  -590.1679  -358.2102 C0            1 RES     
   12305 C0         490.1360  -590.3245  -359.7237 C0            1 RES     
   12306 C0         488.7676  -590.9320  -360.0993 C0            1 RES     
   12307 C0         488.6235  -592.4727  -360.0255 C0            1 RES     
   12308 C0         488.6748  -593.1516  -358.6481 C0            1 RES     
   12309 C0         487.6243  -592.6110  -357.6801 C0            1 RES     
   12310 H6         494.2666  -581.5494  -363.1389 H6            1 RES     
   12311 H6         495.4010  -580.3478  -362.4576 H6            1 RES     
   12312 H6         494.4418  -580.2919  -360.3467 H6            1 RES     
   12313 H6         493.0288  -581.2900  -360.7510 H6            1 RES     
   12314 H6         495.9467  -582.2726  -360.6759 H6            1 RES     
   12315 H6         494.7394  -582.3573  -359.3590 H6            1 RES     
   12316 H6         494.5876  -583.9703  -361.9728 H6            1 RES     
   12317 H6         494.9083  -584.5034  -360.2884 H6            1 RES     
   12318 H6         492.5018  -583.4795  -359.7320 H6            1 RES     
   12319 H6         492.3455  -583.4182  -361.5189 H6            1 RES     
   12320 H6         492.7595  -585.9427  -361.5818 H6            1 RES     
   12321 H6         491.2252  -585.3549  -360.8470 H6            1 RES     
   12322 H6         493.6699  -586.1559  -359.1610 H6            1 RES     
   12323 H6         492.0862  -585.5153  -358.5759 H6            1 RES     
   12324 H6         490.9241  -587.4525  -359.6500 H6            1 RES     
   12325 H6         492.5462  -588.1431  -360.1120 H6            1 RES     
   12326 H6         493.1394  -588.0132  -357.6131 H6            1 RES     
   12327 H6         491.4293  -587.5743  -357.2814 H6            1 RES     
   12328 H6         492.5568  -590.2389  -358.4136 H6            1 RES     
   12329 H6         491.9473  -589.8782  -356.7721 H6            1 RES     
   12330 H6         489.6092  -589.5384  -357.7283 H6            1 RES     
   12331 H6         490.3329  -591.1644  -357.7545 H6            1 RES     
   12332 H6         490.1441  -589.3216  -360.1732 H6            1 RES     
   12333 H6         490.9433  -590.9164  -360.2067 H6            1 RES     
   12334 H6         488.6238  -590.7007  -361.1786 H6            1 RES     
   12335 H6         487.9503  -590.4142  -359.5539 H6            1 RES     
   12336 H6         487.6351  -592.7214  -360.4715 H6            1 RES     
   12337 H6         489.4013  -592.9363  -360.6709 H6            1 RES     
   12338 H6         488.4826  -594.2365  -358.7981 H6            1 RES     
   12339 H6         489.6845  -593.0851  -358.2073 H6            1 RES     
   12340 H6         486.6072  -592.7349  -358.1087 H6            1 RES     
   12341 H6         487.6787  -593.1734  -356.7244 H6            1 RES     
   12342 H6         487.8015  -591.5381  -357.4621 H6            1 RES     
   12343 C0         499.9386  -579.0180  -373.9684 C0            1 RES     
   12344 C1         499.4568  -578.1907  -372.7584 C1            1 RES     
   12345 C1         500.1512  -576.8979  -372.5868 C1            1 RES     
   12346 S2         500.2406  -576.6269  -370.8101 S2            1 RES     
   12347 C1         498.6508  -577.4850  -370.7963 C1            1 RES     
   12348 C1         498.5336  -578.3998  -371.8260 C1            1 RES     
   12349 C1         501.3195  -577.1399  -373.4201 C1            1 RES     
   12350 C1         501.2355  -578.2502  -374.2094 C1            1 RES     
   12351 C1         502.3484  -578.3991  -375.0565 C1            1 RES     
   12352 C1         503.2609  -577.3272  -374.9089 C1            1 RES     
   12353 S2         502.6724  -576.2397  -373.7446 S2            1 RES     
   12354 H3         497.8534  -579.2340  -371.7743 H3            1 RES     
   12355 H3         502.4787  -579.2225  -375.7477 H3            1 RES     
   12356 N4         505.1700  -578.2293  -376.1770 N4            1 RES     
   12357 C1         506.3889  -578.1488  -376.7888 C1            1 RES     
   12358 C1         507.0630  -576.9256  -376.8879 C1            1 RES     
   12359 C1         506.4605  -575.7947  -376.3513 C1            1 RES     
   12360 N4         507.0087  -574.5562  -376.4063 N4            1 RES     
   12361 S2         505.8719  -573.6350  -375.6402 S2            1 RES     
   12362 N4         504.7033  -574.7249  -375.2211 N4            1 RES     
   12363 C1         505.2005  -575.8954  -375.7010 C1            1 RES     
   12364 C1         504.5529  -577.1467  -375.6159 C1            1 RES     
   12365 H5         506.8442  -579.0419  -377.1970 H5            1 RES     
   12366 C0         498.9885  -578.7978  -375.1902 C0            1 RES     
   12367 C0         497.5709  -579.3363  -374.9724 C0            1 RES     
   12368 C0         496.5508  -579.0208  -376.0708 C0            1 RES     
   12369 C0         496.2549  -577.5302  -376.3014 C0            1 RES     
   12370 C0         496.0100  -576.7445  -374.9968 C0            1 RES     
   12371 C0         495.4372  -575.3472  -375.2633 C0            1 RES     
   12372 C0         493.9274  -575.4206  -375.5401 C0            1 RES     
   12373 C0         493.3471  -574.0454  -375.8726 C0            1 RES     
   12374 C0         491.8175  -574.1102  -375.9238 C0            1 RES     
   12375 C0         491.1002  -572.8887  -376.5325 C0            1 RES     
   12376 C0         491.3419  -571.5067  -375.8933 C0            1 RES     
   12377 C0         492.6577  -570.8344  -376.3451 C0            1 RES     
   12378 C0         492.9005  -569.4207  -375.7799 C0            1 RES     
   12379 C0         492.1800  -568.2408  -376.4757 C0            1 RES     
   12380 C0         490.6494  -568.1580  -376.3789 C0            1 RES     
   12381 C0         490.1459  -568.1465  -374.9368 C0            1 RES     
   12382 H6         498.9181  -577.7037  -375.3675 H6            1 RES     
   12383 H6         499.4227  -579.2563  -376.1053 H6            1 RES     
   12384 H6         497.6275  -580.4225  -374.9235 H6            1 RES     
   12385 H6         497.1587  -578.9598  -374.0181 H6            1 RES     
   12386 H6         496.8568  -579.4850  -377.0333 H6            1 RES     
   12387 H6         495.5996  -579.5038  -375.7526 H6            1 RES     
   12388 H6         497.0986  -577.0482  -376.8414 H6            1 RES     
   12389 H6         495.3685  -577.4936  -376.9677 H6            1 RES     
   12390 H6         495.3289  -577.2883  -374.3062 H6            1 RES     
   12391 H6         496.9916  -576.6317  -374.4886 H6            1 RES     
   12392 H6         495.9964  -574.8585  -376.0918 H6            1 RES     
   12393 H6         495.5682  -574.7301  -374.3473 H6            1 RES     
   12394 H6         493.7038  -576.1046  -376.3849 H6            1 RES     
   12395 H6         493.4352  -575.8199  -374.6247 H6            1 RES     
   12396 H6         493.6402  -573.3376  -375.0710 H6            1 RES     
   12397 H6         493.7597  -573.7226  -376.8534 H6            1 RES     
   12398 H6         491.5136  -574.9802  -376.5472 H6            1 RES     
   12399 H6         491.4439  -574.2883  -374.8905 H6            1 RES     
   12400 H6         491.3045  -572.8233  -377.6230 H6            1 RES     
   12401 H6         490.0166  -573.1165  -376.4183 H6            1 RES     
   12402 H6         491.2685  -571.5722  -374.7862 H6            1 RES     
   12403 H6         490.5081  -570.8867  -376.2440 H6            1 RES     
   12404 H6         493.4986  -571.4392  -375.9782 H6            1 RES     
   12405 H6         492.7318  -570.8036  -377.4539 H6            1 RES     
   12406 H6         493.9814  -569.2122  -375.9457 H6            1 RES     
   12407 H6         492.7423  -569.4126  -374.6809 H6            1 RES     
   12408 H6         492.5856  -567.3096  -376.0222 H6            1 RES     
   12409 H6         492.4612  -568.2331  -377.5515 H6            1 RES     
   12410 H6         490.3295  -567.2123  -376.8676 H6            1 RES     
   12411 H6         490.1699  -568.9683  -376.9545 H6            1 RES     
   12412 H6         490.5913  -567.2941  -374.3815 H6            1 RES     
   12413 H6         489.0412  -568.0375  -374.9324 H6            1 RES     
   12414 H6         490.4023  -569.0932  -374.4193 H6            1 RES     
   12415 C0         500.2697  -580.5394  -373.6741 C0            1 RES     
   12416 C0         499.2704  -581.2726  -372.7460 C0            1 RES     
   12417 C0         499.4425  -582.7969  -372.5695 C0            1 RES     
   12418 C0         498.9456  -583.7135  -373.7148 C0            1 RES     
   12419 C0         497.5075  -583.3790  -374.1625 C0            1 RES     
   12420 C0         496.8065  -584.4661  -374.9900 C0            1 RES     
   12421 C0         496.2454  -585.5832  -374.0949 C0            1 RES     
   12422 C0         495.4618  -586.6228  -374.9099 C0            1 RES     
   12423 C0         494.7578  -587.6165  -373.9765 C0            1 RES     
   12424 C0         494.1536  -588.8781  -374.6303 C0            1 RES     
   12425 C0         493.0169  -588.7135  -375.6615 C0            1 RES     
   12426 C0         493.4938  -588.3141  -377.0729 C0            1 RES     
   12427 C0         492.3831  -588.2405  -378.1423 C0            1 RES     
   12428 C0         491.9245  -589.5704  -378.7911 C0            1 RES     
   12429 C0         491.1778  -590.5942  -377.9224 C0            1 RES     
   12430 C0         489.9205  -590.0183  -377.2740 C0            1 RES     
   12431 H6         500.3724  -581.0663  -374.6473 H6            1 RES     
   12432 H6         501.2521  -580.6198  -373.1568 H6            1 RES     
   12433 H6         499.4323  -580.8417  -371.7363 H6            1 RES     
   12434 H6         498.2211  -581.0884  -373.0123 H6            1 RES     
   12435 H6         500.4930  -583.0436  -372.3046 H6            1 RES     
   12436 H6         498.8129  -583.0653  -371.6916 H6            1 RES     
   12437 H6         499.6186  -583.6650  -374.5982 H6            1 RES     
   12438 H6         498.9842  -584.7489  -373.3147 H6            1 RES     
   12439 H6         496.8564  -583.1298  -373.2957 H6            1 RES     
   12440 H6         497.5888  -582.4925  -374.8053 H6            1 RES     
   12441 H6         497.4820  -584.8548  -375.7833 H6            1 RES     
   12442 H6         495.9310  -583.9918  -375.4845 H6            1 RES     
   12443 H6         497.0629  -586.0881  -373.5389 H6            1 RES     
   12444 H6         495.5514  -585.1164  -373.3593 H6            1 RES     
   12445 H6         494.6926  -586.0870  -375.4989 H6            1 RES     
   12446 H6         496.1683  -587.1530  -375.5838 H6            1 RES     
   12447 H6         495.5069  -587.9905  -373.2440 H6            1 RES     
   12448 H6         493.9691  -587.0762  -373.4064 H6            1 RES     
   12449 H6         494.9575  -589.5079  -375.0688 H6            1 RES     
   12450 H6         493.7209  -589.4501  -373.7790 H6            1 RES     
   12451 H6         492.2416  -588.0149  -375.2785 H6            1 RES     
   12452 H6         492.5575  -589.7075  -375.7298 H6            1 RES     
   12453 H6         493.9109  -587.2989  -377.0140 H6            1 RES     
   12454 H6         494.3009  -588.9894  -377.4305 H6            1 RES     
   12455 H6         492.8209  -587.6659  -378.9892 H6            1 RES     
   12456 H6         491.5232  -587.6454  -377.7683 H6            1 RES     
   12457 H6         491.2428  -589.2979  -379.6271 H6            1 RES     
   12458 H6         492.8090  -590.0737  -379.2393 H6            1 RES     
   12459 H6         490.8737  -591.4381  -378.5795 H6            1 RES     
   12460 H6         491.8447  -591.0338  -377.1607 H6            1 RES     
   12461 H6         489.2301  -589.6301  -378.0528 H6            1 RES     
   12462 H6         489.4007  -590.8162  -376.7033 H6            1 RES     
   12463 H6         490.1769  -589.1996  -376.5712 H6            1 RES     
   12464 C0         510.9005  -577.7130  -380.4586 C0            1 RES     
   12465 C1         510.0704  -577.1627  -379.2802 C1            1 RES     
   12466 C1         510.8347  -576.3250  -378.3331 C1            1 RES     
   12467 S2         510.1146  -576.6413  -376.7147 S2            1 RES     
   12468 C1         508.5794  -576.8229  -377.6496 C1            1 RES     
   12469 C1         508.7933  -577.2848  -378.9348 C1            1 RES     
   12470 C1         512.1866  -576.7199  -378.6996 C1            1 RES     
   12471 C1         512.2759  -577.4374  -379.8571 C1            1 RES     
   12472 C1         513.6051  -577.7258  -380.2155 C1            1 RES     
   12473 C1         514.5247  -577.1557  -379.3029 C1            1 RES     
   12474 S2         513.6758  -576.3232  -378.0902 S2            1 RES     
   12475 H3         508.0236  -577.7886  -379.4961 H3            1 RES     
   12476 H3         513.8869  -578.2971  -381.0913 H3            1 RES     
   12477 N4         516.5905  -578.2761  -380.0405 N4            1 RES     
   12478 C1         517.9426  -578.4698  -380.0676 C1            1 RES     
   12479 C1         518.8055  -577.6064  -379.3816 C1            1 RES     
   12480 C1         518.2530  -576.5456  -378.6750 C1            1 RES     
   12481 N4         518.9898  -575.6357  -377.9919 N4            1 RES     
   12482 S2         517.8293  -574.6327  -377.3798 S2            1 RES     
   12483 N4         516.4159  -575.2920  -377.9246 N4            1 RES     
   12484 C1         516.8434  -576.3660  -378.6397 C1            1 RES     
   12485 C1         516.0044  -577.2599  -379.3395 C1            1 RES     
   12486 H5         518.3539  -579.3046  -380.6203 H5            1 RES     
   12487 C0         510.7138  -576.8120  -381.7224 C0            1 RES     
   12488 C0         509.2907  -576.8342  -382.2893 C0            1 RES     
   12489 C0         509.0035  -575.8597  -383.4359 C0            1 RES     
   12490 C0         509.1506  -574.3674  -383.0987 C0            1 RES     
   12491 C0         508.4700  -573.9681  -381.7733 C0            1 RES     
   12492 C0         508.3788  -572.4464  -381.6067 C0            1 RES     
   12493 C0         507.2038  -571.8786  -382.4181 C0            1 RES     
   12494 C0         507.1334  -570.3543  -382.3181 C0            1 RES     
   12495 C0         505.8353  -569.8380  -382.9464 C0            1 RES     
   12496 C0         505.7496  -568.3181  -383.1907 C0            1 RES     
   12497 C0         505.9201  -567.3739  -381.9838 C0            1 RES     
   12498 C0         507.3940  -567.1275  -381.5907 C0            1 RES     
   12499 C0         507.6067  -566.1340  -380.4311 C0            1 RES     
   12500 C0         507.5520  -564.6240  -380.7664 C0            1 RES     
   12501 C0         506.2110  -564.0205  -381.2095 C0            1 RES     
   12502 C0         505.0926  -564.2512  -380.1951 C0            1 RES     
   12503 H6         510.9512  -575.7678  -381.4280 H6            1 RES     
   12504 H6         511.4340  -577.1060  -382.5168 H6            1 RES     
   12505 H6         509.1043  -577.8286  -382.6917 H6            1 RES     
   12506 H6         508.5547  -576.6321  -381.4894 H6            1 RES     
   12507 H6         509.6354  -576.0981  -384.3188 H6            1 RES     
   12508 H6         507.9428  -576.0328  -383.7258 H6            1 RES     
   12509 H6         510.2252  -574.0907  -383.0320 H6            1 RES     
   12510 H6         508.7171  -573.8153  -383.9580 H6            1 RES     
   12511 H6         507.4506  -574.4030  -381.6824 H6            1 RES     
   12512 H6         509.0897  -574.3764  -380.9463 H6            1 RES     
   12513 H6         509.3490  -571.9751  -381.8796 H6            1 RES     
   12514 H6         508.1732  -572.2189  -380.5376 H6            1 RES     
   12515 H6         507.2830  -572.1523  -383.4906 H6            1 RES     
   12516 H6         506.2669  -572.3211  -382.0105 H6            1 RES     
   12517 H6         507.1390  -570.0722  -381.2458 H6            1 RES     
   12518 H6         508.0186  -569.9310  -382.8414 H6            1 RES     
   12519 H6         505.7036  -570.3119  -383.9443 H6            1 RES     
   12520 H6         504.9866  -570.1632  -382.3037 H6            1 RES     
   12521 H6         506.4587  -568.0139  -383.9906 H6            1 RES     
   12522 H6         504.7226  -568.1573  -383.5888 H6            1 RES     
   12523 H6         505.3152  -567.7309  -381.1224 H6            1 RES     
   12524 H6         505.4943  -566.4187  -382.3138 H6            1 RES     
   12525 H6         507.8209  -568.0767  -381.2382 H6            1 RES     
   12526 H6         507.9934  -566.8010  -382.4680 H6            1 RES     
   12527 H6         508.6524  -566.2956  -380.0849 H6            1 RES     
   12528 H6         506.9474  -566.3926  -379.5760 H6            1 RES     
   12529 H6         507.8639  -564.0832  -379.8458 H6            1 RES     
   12530 H6         508.3088  -564.4031  -381.5507 H6            1 RES     
   12531 H6         506.3547  -562.9247  -381.3272 H6            1 RES     
   12532 H6         505.9178  -564.3918  -382.2067 H6            1 RES     
   12533 H6         505.3745  -563.8244  -379.2093 H6            1 RES     
   12534 H6         504.1655  -563.7529  -380.5481 H6            1 RES     
   12535 H6         504.8804  -565.3333  -380.0773 H6            1 RES     
   12536 C0         510.7472  -579.2642  -380.7434 C0            1 RES     
   12537 C0         509.3049  -579.8203  -380.6529 C0            1 RES     
   12538 C0         509.0712  -581.2814  -381.0945 C0            1 RES     
   12539 C0         509.0148  -581.5723  -382.6147 C0            1 RES     
   12540 C0         508.0623  -580.6200  -383.3673 C0            1 RES     
   12541 C0         507.6459  -581.0806  -384.7717 C0            1 RES     
   12542 C0         506.5199  -582.1260  -384.7124 C0            1 RES     
   12543 C0         506.0361  -582.5181  -386.1163 C0            1 RES     
   12544 C0         504.7935  -583.4136  -386.0248 C0            1 RES     
   12545 C0         504.3431  -584.1147  -387.3247 C0            1 RES     
   12546 C0         503.8945  -583.2508  -388.5226 C0            1 RES     
   12547 C0         505.0555  -582.6566  -389.3461 C0            1 RES     
   12548 C0         504.6298  -581.8713  -390.6049 C0            1 RES     
   12549 C0         504.2884  -582.6874  -391.8767 C0            1 RES     
   12550 C0         503.0342  -583.5749  -391.8672 C0            1 RES     
   12551 C0         501.7595  -582.7981  -391.5437 C0            1 RES     
   12552 H6         511.1979  -579.4807  -381.7361 H6            1 RES     
   12553 H6         511.3257  -579.8462  -379.9911 H6            1 RES     
   12554 H6         509.0447  -579.7961  -379.5745 H6            1 RES     
   12555 H6         508.5694  -579.1961  -381.1776 H6            1 RES     
   12556 H6         509.7963  -581.9607  -380.5972 H6            1 RES     
   12557 H6         508.0600  -581.5470  -380.7123 H6            1 RES     
   12558 H6         510.0230  -581.5151  -383.0794 H6            1 RES     
   12559 H6         508.6550  -582.6186  -382.7113 H6            1 RES     
   12560 H6         507.1387  -580.4174  -382.7812 H6            1 RES     
   12561 H6         508.6117  -579.6775  -383.4912 H6            1 RES     
   12562 H6         508.5280  -581.4369  -385.3475 H6            1 RES     
   12563 H6         507.2248  -580.1966  -385.2980 H6            1 RES     
   12564 H6         506.8560  -583.0340  -384.1693 H6            1 RES     
   12565 H6         505.6648  -581.6769  -384.1577 H6            1 RES     
   12566 H6         505.7632  -581.5907  -386.6558 H6            1 RES     
   12567 H6         506.8602  -583.0459  -386.6424 H6            1 RES     
   12568 H6         505.0121  -584.2330  -385.3049 H6            1 RES     
   12569 H6         503.9506  -582.8163  -385.6104 H6            1 RES     
   12570 H6         505.1185  -584.8354  -387.6629 H6            1 RES     
   12571 H6         503.4540  -584.7126  -387.0222 H6            1 RES     
   12572 H6         503.1834  -582.4635  -388.1906 H6            1 RES     
   12573 H6         503.3402  -583.9409  -389.1710 H6            1 RES     
   12574 H6         505.5821  -581.9296  -388.7120 H6            1 RES     
   12575 H6         505.7863  -583.4424  -389.6356 H6            1 RES     
   12576 H6         505.5215  -581.2744  -390.9008 H6            1 RES     
   12577 H6         503.8304  -581.1419  -390.3554 H6            1 RES     
   12578 H6         504.1572  -581.9518  -392.7010 H6            1 RES     
   12579 H6         505.1622  -583.3229  -392.1395 H6            1 RES     
   12580 H6         502.9237  -584.0157  -392.8820 H6            1 RES     
   12581 H6         503.1557  -584.4308  -391.1810 H6            1 RES     
   12582 H6         501.6161  -581.9740  -392.2745 H6            1 RES     
   12583 H6         500.8861  -583.4810  -391.6016 H6            1 RES     
   12584 H6         501.8024  -582.3755  -390.5192 H6            1 RES     
   12585 C0         523.6460  -578.6516  -381.2719 C0            1 RES     
   12586 C1         522.4788  -578.2095  -380.3649 C1            1 RES     
   12587 C1         522.8436  -578.0274  -378.9448 C1            1 RES     
   12588 S2         521.3916  -578.5203  -378.0033 S2            1 RES     
   12589 C1         520.4883  -577.8450  -379.4147 C1            1 RES     
   12590 C1         521.1960  -577.9527  -380.5973 C1            1 RES     
   12591 C1         524.0999  -578.7618  -378.9232 C1            1 RES     
   12592 C1         524.5900  -579.0874  -380.1547 C1            1 RES     
   12593 C1         525.8437  -579.7218  -380.0892 C1            1 RES     
   12594 C1         526.3060  -579.8227  -378.7551 C1            1 RES     
   12595 S2         525.1611  -579.1345  -377.7062 S2            1 RES     
   12596 H3         520.7071  -577.9514  -381.5576 H3            1 RES     
   12597 H3         526.3925  -580.0714  -380.9548 H3            1 RES     
   12598 N4         528.2098  -581.3492  -379.0897 N4            1 RES     
   12599 C1         529.3431  -582.0060  -378.7012 C1            1 RES     
   12600 C1         529.9222  -581.7603  -377.4504 C1            1 RES     
   12601 C1         529.3177  -580.8297  -376.6146 C1            1 RES     
   12602 N4         529.7993  -580.4962  -375.3922 N4            1 RES     
   12603 S2         528.7079  -579.3669  -374.8813 S2            1 RES     
   12604 N4         527.6295  -579.2729  -376.1292 N4            1 RES     
   12605 C1         528.1284  -580.1670  -377.0232 C1            1 RES     
   12606 C1         527.5705  -580.4441  -378.2898 C1            1 RES     
   12607 H5         529.7970  -582.7307  -379.3647 H5            1 RES     
   12608 C0         524.2656  -577.4156  -382.0014 C0            1 RES     
   12609 C0         523.3136  -576.7487  -382.9993 C0            1 RES     
   12610 C0         523.8054  -575.4457  -383.6371 C0            1 RES     
   12611 C0         524.0607  -574.2806  -382.6677 C0            1 RES     
   12612 C0         522.9219  -574.0697  -381.6489 C0            1 RES     
   12613 C0         523.0603  -572.7415  -380.8950 C0            1 RES     
   12614 C0         522.5523  -571.5722  -381.7530 C0            1 RES     
   12615 C0         522.7410  -570.2296  -381.0456 C0            1 RES     
   12616 C0         522.0300  -569.1148  -381.8189 C0            1 RES     
   12617 C0         522.3693  -567.6692  -381.4039 C0            1 RES     
   12618 C0         522.1222  -567.2528  -379.9401 C0            1 RES     
   12619 C0         523.2445  -567.6890  -378.9717 C0            1 RES     
   12620 C0         523.0657  -567.2306  -377.5107 C0            1 RES     
   12621 C0         523.4731  -565.7782  -377.1638 C0            1 RES     
   12622 C0         522.6538  -564.6252  -377.7624 C0            1 RES     
   12623 C0         521.1661  -564.7193  -377.4295 C0            1 RES     
   12624 H6         524.5315  -576.6666  -381.2256 H6            1 RES     
   12625 H6         525.2050  -577.7043  -382.5214 H6            1 RES     
   12626 H6         523.1527  -577.4405  -383.8246 H6            1 RES     
   12627 H6         522.3401  -576.5371  -382.5198 H6            1 RES     
   12628 H6         524.7223  -575.6270  -384.2388 H6            1 RES     
   12629 H6         523.0018  -575.1259  -384.3380 H6            1 RES     
   12630 H6         525.0030  -574.4482  -382.1023 H6            1 RES     
   12631 H6         524.2076  -573.3818  -383.3014 H6            1 RES     
   12632 H6         521.9206  -574.1085  -382.1313 H6            1 RES     
   12633 H6         522.9777  -574.9000  -380.9127 H6            1 RES     
   12634 H6         524.1134  -572.5990  -380.5658 H6            1 RES     
   12635 H6         522.4173  -572.7803  -379.9883 H6            1 RES     
   12636 H6         523.0796  -571.5271  -382.7284 H6            1 RES     
   12637 H6         521.4689  -571.7410  -381.9465 H6            1 RES     
   12638 H6         522.2880  -570.2982  -380.0358 H6            1 RES     
   12639 H6         523.8317  -570.0249  -380.9750 H6            1 RES     
   12640 H6         522.3021  -569.1915  -382.8950 H6            1 RES     
   12641 H6         520.9326  -569.2813  -381.7356 H6            1 RES     
   12642 H6         523.4183  -567.4239  -381.6772 H6            1 RES     
   12643 H6         521.7114  -567.0351  -382.0395 H6            1 RES     
   12644 H6         521.1227  -567.6009  -379.6003 H6            1 RES     
   12645 H6         522.1011  -566.1566  -379.9610 H6            1 RES     
   12646 H6         523.2569  -568.7869  -378.9293 H6            1 RES     
   12647 H6         524.2409  -567.3611  -379.3396 H6            1 RES     
   12648 H6         523.7643  -567.8570  -376.9114 H6            1 RES     
   12649 H6         522.0418  -567.4700  -377.1539 H6            1 RES     
   12650 H6         523.4053  -565.6855  -376.0574 H6            1 RES     
   12651 H6         524.5392  -565.6285  -377.4424 H6            1 RES     
   12652 H6         523.0465  -563.6752  -377.3397 H6            1 RES     
   12653 H6         522.8071  -564.5525  -378.8529 H6            1 RES     
   12654 H6         521.0193  -564.7354  -376.3288 H6            1 RES     
   12655 H6         520.6378  -563.8368  -377.8474 H6            1 RES     
   12656 H6         520.7174  -565.6323  -377.8711 H6            1 RES     
   12657 C0         523.3489  -579.8819  -382.2254 C0            1 RES     
   12658 C0         521.9621  -579.8730  -382.9142 C0            1 RES     
   12659 C0         521.6887  -580.9482  -383.9882 C0            1 RES     
   12660 C0         522.3105  -580.7370  -385.3909 C0            1 RES     
   12661 C0         522.0399  -579.3266  -385.9550 C0            1 RES     
   12662 C0         522.2650  -579.1679  -387.4656 C0            1 RES     
   12663 C0         521.0689  -579.6976  -388.2735 C0            1 RES     
   12664 C0         521.2493  -579.4540  -389.7792 C0            1 RES     
   12665 C0         519.9671  -579.8182  -390.5391 C0            1 RES     
   12666 C0         520.0662  -579.8903  -392.0782 C0            1 RES     
   12667 C0         520.4229  -578.6108  -392.8646 C0            1 RES     
   12668 C0         521.9266  -578.2675  -392.8688 C0            1 RES     
   12669 C0         522.3167  -577.0478  -393.7308 C0            1 RES     
   12670 C0         522.4735  -577.2696  -395.2559 C0            1 RES     
   12671 C0         521.2221  -577.5983  -396.0844 C0            1 RES     
   12672 C0         520.1269  -576.5421  -395.9505 C0            1 RES     
   12673 H6         524.1674  -579.9453  -382.9747 H6            1 RES     
   12674 H6         523.3714  -580.8285  -381.6402 H6            1 RES     
   12675 H6         521.2284  -580.0741  -382.1064 H6            1 RES     
   12676 H6         521.7046  -578.8988  -383.3504 H6            1 RES     
   12677 H6         521.9397  -581.9592  -383.6020 H6            1 RES     
   12678 H6         520.5882  -580.9262  -384.1543 H6            1 RES     
   12679 H6         523.4073  -580.9177  -385.3831 H6            1 RES     
   12680 H6         521.8449  -581.5012  -386.0486 H6            1 RES     
   12681 H6         521.0082  -578.9830  -385.7207 H6            1 RES     
   12682 H6         522.7532  -578.6583  -385.4549 H6            1 RES     
   12683 H6         523.2265  -579.6352  -387.7722 H6            1 RES     
   12684 H6         522.3281  -578.0784  -387.6776 H6            1 RES     
   12685 H6         520.9203  -580.7821  -388.0890 H6            1 RES     
   12686 H6         520.1587  -579.1521  -387.9350 H6            1 RES     
   12687 H6         521.4541  -578.3764  -389.9295 H6            1 RES     
   12688 H6         522.1039  -580.0661  -390.1389 H6            1 RES     
   12689 H6         519.6506  -580.8336  -390.2132 H6            1 RES     
   12690 H6         519.1633  -579.1049  -390.2489 H6            1 RES     
   12691 H6         520.7518  -580.7103  -392.3825 H6            1 RES     
   12692 H6         519.0438  -580.1828  -392.4075 H6            1 RES     
   12693 H6         519.8084  -577.7536  -392.5134 H6            1 RES     
   12694 H6         520.1239  -578.8271  -393.8978 H6            1 RES     
   12695 H6         522.2160  -578.0043  -391.8417 H6            1 RES     
   12696 H6         522.5380  -579.1431  -393.1769 H6            1 RES     
   12697 H6         523.3381  -576.7591  -393.3954 H6            1 RES     
   12698 H6         521.6548  -576.1852  -393.5048 H6            1 RES     
   12699 H6         522.8984  -576.3293  -395.6720 H6            1 RES     
   12700 H6         523.2238  -578.0725  -395.4257 H6            1 RES     
   12701 H6         521.5267  -577.6486  -397.1526 H6            1 RES     
   12702 H6         520.8314  -578.6007  -395.8375 H6            1 RES     
   12703 H6         520.5138  -575.5468  -396.2559 H6            1 RES     
   12704 H6         519.2736  -576.8094  -396.6086 H6            1 RES     
   12705 H6         519.7561  -576.4862  -394.9068 H6            1 RES     
   12706 C0         534.7682  -583.8941  -377.6940 C0            1 RES     
   12707 C1         533.4210  -583.3445  -377.1807 C1            1 RES     
   12708 C1         533.0900  -583.7349  -375.7948 C1            1 RES     
   12709 S2         531.3003  -583.9174  -375.7560 S2            1 RES     
   12710 C1         531.3329  -582.5757  -376.9654 C1            1 RES     
   12711 C1         532.4834  -582.5811  -377.7316 C1            1 RES     
   12712 C1         534.0126  -584.8486  -375.6318 C1            1 RES     
   12713 C1         534.9578  -584.9525  -376.6109 C1            1 RES     
   12714 C1         535.8767  -585.9898  -376.3699 C1            1 RES     
   12715 C1         535.6152  -586.6404  -375.1403 C1            1 RES     
   12716 S2         534.2672  -585.9234  -374.3965 S2            1 RES     
   12717 H3         532.5241  -582.1186  -378.7042 H3            1 RES     
   12718 H3         536.6925  -586.2441  -377.0351 H3            1 RES     
   12719 N4         537.1086  -588.5852  -375.3737 N4            1 RES     
   12720 C1         537.7657  -589.6933  -374.9189 C1            1 RES     
   12721 C1         537.7114  -590.0561  -373.5676 C1            1 RES     
   12722 C1         536.9752  -589.2595  -372.6996 C1            1 RES     
   12723 N4         536.8682  -589.5007  -371.3700 N4            1 RES     
   12724 S2         535.9091  -588.2552  -370.8636 S2            1 RES     
   12725 N4         535.6003  -587.4111  -372.2497 N4            1 RES     
   12726 C1         536.2810  -588.1197  -373.1889 C1            1 RES     
   12727 C1         536.3548  -587.7879  -374.5589 C1            1 RES     
   12728 H5         538.3306  -590.3038  -375.6115 H5            1 RES     
   12729 C0         535.8883  -582.8139  -377.5441 C0            1 RES     
   12730 C0         535.6798  -581.5836  -378.4328 C0            1 RES     
   12731 C0         536.6596  -580.4245  -378.2251 C0            1 RES     
   12732 C0         536.6415  -579.7741  -376.8327 C0            1 RES     
   12733 C0         535.2201  -579.4720  -376.3152 C0            1 RES     
   12734 C0         535.2368  -578.5714  -375.0741 C0            1 RES     
   12735 C0         535.4396  -577.1006  -375.4705 C0            1 RES     
   12736 C0         535.5243  -576.1920  -374.2435 C0            1 RES     
   12737 C0         535.5021  -574.7201  -374.6672 C0            1 RES     
   12738 C0         535.8756  -573.6895  -373.5831 C0            1 RES     
   12739 C0         535.0452  -573.6624  -372.2843 C0            1 RES     
   12740 C0         535.4585  -574.7424  -371.2595 C0            1 RES     
   12741 C0         534.6962  -574.7025  -369.9201 C0            1 RES     
   12742 C0         535.1619  -573.6706  -368.8648 C0            1 RES     
   12743 C0         534.9708  -572.1769  -369.1671 C0            1 RES     
   12744 C0         533.5192  -571.8149  -369.4747 C0            1 RES     
   12745 H6         535.8909  -582.4779  -376.4855 H6            1 RES     
   12746 H6         536.8853  -583.2587  -377.7548 H6            1 RES     
   12747 H6         535.8019  -581.8928  -379.4696 H6            1 RES     
   12748 H6         534.6579  -581.1824  -378.3010 H6            1 RES     
   12749 H6         537.6973  -580.7422  -378.4657 H6            1 RES     
   12750 H6         536.3687  -579.6424  -378.9619 H6            1 RES     
   12751 H6         537.1456  -580.4325  -376.0923 H6            1 RES     
   12752 H6         537.2453  -578.8473  -376.9199 H6            1 RES     
   12753 H6         534.5857  -578.9987  -377.0963 H6            1 RES     
   12754 H6         534.7544  -580.4425  -376.0399 H6            1 RES     
   12755 H6         536.0091  -578.9270  -374.3565 H6            1 RES     
   12756 H6         534.2451  -578.6379  -374.5750 H6            1 RES     
   12757 H6         536.3663  -576.9661  -376.0660 H6            1 RES     
   12758 H6         534.5713  -576.7972  -376.0981 H6            1 RES     
   12759 H6         534.6402  -576.3844  -373.6024 H6            1 RES     
   12760 H6         536.4645  -576.4301  -373.6996 H6            1 RES     
   12761 H6         536.2347  -574.5704  -375.4910 H6            1 RES     
   12762 H6         534.4899  -574.4911  -375.0698 H6            1 RES     
   12763 H6         536.9525  -573.7753  -373.3217 H6            1 RES     
   12764 H6         535.7394  -572.7021  -374.0786 H6            1 RES     
   12765 H6         533.9590  -573.7050  -372.5165 H6            1 RES     
   12766 H6         535.2505  -572.6804  -371.8415 H6            1 RES     
   12767 H6         535.2352  -575.7292  -371.6884 H6            1 RES     
   12768 H6         536.5516  -574.7084  -371.0604 H6            1 RES     
   12769 H6         534.8860  -575.6871  -369.4366 H6            1 RES     
   12770 H6         533.6021  -574.6452  -370.1008 H6            1 RES     
   12771 H6         534.5929  -573.8897  -367.9344 H6            1 RES     
   12772 H6         536.2373  -573.8455  -368.6423 H6            1 RES     
   12773 H6         535.2900  -571.6057  -368.2687 H6            1 RES     
   12774 H6         535.6377  -571.8476  -369.9825 H6            1 RES     
   12775 H6         532.8641  -572.0996  -368.6244 H6            1 RES     
   12776 H6         533.4383  -570.7196  -369.6368 H6            1 RES     
   12777 H6         533.1683  -572.3274  -370.3935 H6            1 RES     
   12778 C0         534.7301  -584.5915  -379.1163 C0            1 RES     
   12779 C0         533.8734  -583.8746  -380.1886 C0            1 RES     
   12780 C0         533.9434  -584.4082  -381.6360 C0            1 RES     
   12781 C0         535.1878  -584.0357  -382.4796 C0            1 RES     
   12782 C0         535.5002  -582.5252  -382.4434 C0            1 RES     
   12783 C0         536.4461  -582.0225  -383.5436 C0            1 RES     
   12784 C0         535.7048  -581.8157  -384.8746 C0            1 RES     
   12785 C0         536.6266  -581.2232  -385.9507 C0            1 RES     
   12786 C0         535.8208  -580.8531  -387.2029 C0            1 RES     
   12787 C0         536.6276  -580.4998  -388.4711 C0            1 RES     
   12788 C0         537.5581  -579.2685  -388.4457 C0            1 RES     
   12789 C0         538.9148  -579.5130  -387.7540 C0            1 RES     
   12790 C0         539.8984  -578.3244  -387.8045 C0            1 RES     
   12791 C0         540.7187  -578.1285  -389.1040 C0            1 RES     
   12792 C0         539.9790  -577.7181  -390.3865 C0            1 RES     
   12793 C0         539.1826  -576.4248  -390.2247 C0            1 RES     
   12794 H6         535.7771  -584.7257  -379.4647 H6            1 RES     
   12795 H6         534.2853  -585.6081  -379.0278 H6            1 RES     
   12796 H6         532.8197  -584.0222  -379.8738 H6            1 RES     
   12797 H6         534.0511  -582.7917  -380.2279 H6            1 RES     
   12798 H6         533.7770  -585.5065  -381.6561 H6            1 RES     
   12799 H6         533.0846  -583.9381  -382.1656 H6            1 RES     
   12800 H6         536.0882  -584.5980  -382.1500 H6            1 RES     
   12801 H6         534.9547  -584.3471  -383.5199 H6            1 RES     
   12802 H6         534.5714  -581.9141  -382.4794 H6            1 RES     
   12803 H6         536.0021  -582.3425  -381.4840 H6            1 RES     
   12804 H6         537.3252  -582.6959  -383.6457 H6            1 RES     
   12805 H6         536.8136  -581.0209  -383.2311 H6            1 RES     
   12806 H6         535.2782  -582.7738  -385.2389 H6            1 RES     
   12807 H6         534.8696  -581.1013  -384.6939 H6            1 RES     
   12808 H6         537.0836  -580.3020  -385.5406 H6            1 RES     
   12809 H6         537.4114  -581.9699  -386.1978 H6            1 RES     
   12810 H6         535.1963  -581.7303  -387.4820 H6            1 RES     
   12811 H6         535.1325  -580.0151  -386.9518 H6            1 RES     
   12812 H6         537.2006  -581.3848  -388.8226 H6            1 RES     
   12813 H6         535.8524  -580.2880  -389.2415 H6            1 RES     
   12814 H6         537.0307  -578.3905  -388.0137 H6            1 RES     
   12815 H6         537.7538  -579.0462  -389.5022 H6            1 RES     
   12816 H6         538.7228  -579.6886  -386.6861 H6            1 RES     
   12817 H6         539.4153  -580.4188  -388.1594 H6            1 RES     
   12818 H6         540.6691  -578.5410  -387.0310 H6            1 RES     
   12819 H6         539.3913  -577.3875  -387.4910 H6            1 RES     
   12820 H6         541.4646  -577.3307  -388.8920 H6            1 RES     
   12821 H6         541.2862  -579.0616  -389.3132 H6            1 RES     
   12822 H6         540.7408  -577.5592  -391.1807 H6            1 RES     
   12823 H6         539.3313  -578.5334  -390.7525 H6            1 RES     
   12824 H6         539.8537  -575.5971  -389.9115 H6            1 RES     
   12825 H6         538.7144  -576.1557  -391.1947 H6            1 RES     
   12826 H6         538.3769  -576.5473  -389.4725 H6            1 RES     
   12827 C0         541.5630  -593.6380  -372.9111 C0            1 RES     
   12828 C1         540.2707  -592.8119  -372.7436 C1            1 RES     
   12829 C1         539.2486  -593.4439  -371.8841 C1            1 RES     
   12830 S2         537.6617  -592.9631  -372.5830 S2            1 RES     
   12831 C1         538.5290  -591.4340  -372.9994 C1            1 RES     
   12832 C1         539.8797  -591.6331  -373.2159 C1            1 RES     
   12833 C1         539.7442  -594.8123  -371.8877 C1            1 RES     
   12834 C1         541.0015  -594.9609  -372.3973 C1            1 RES     
   12835 C1         541.4714  -596.2834  -372.3051 C1            1 RES     
   12836 C1         540.5329  -597.1246  -371.6606 C1            1 RES     
   12837 S2         539.1623  -596.2182  -371.2312 S2            1 RES     
   12838 H3         540.4695  -590.9532  -373.8085 H3            1 RES     
   12839 H3         542.4387  -596.6101  -372.6663 H3            1 RES     
   12840 N4         541.5450  -599.3187  -372.1386 N4            1 RES     
   12841 C1         541.6746  -600.6712  -371.9952 C1            1 RES     
   12842 C1         540.9115  -601.3696  -371.0517 C1            1 RES     
   12843 C1         540.0211  -600.6529  -370.2621 C1            1 RES     
   12844 N4         539.2468  -601.2182  -369.3038 N4            1 RES     
   12845 S2         538.4257  -599.9171  -368.7034 S2            1 RES     
   12846 N4         538.9882  -598.6508  -369.6030 N4            1 RES     
   12847 C1         539.8823  -599.2487  -370.4341 C1            1 RES     
   12848 C1         540.6651  -598.5792  -371.3992 C1            1 RES     
   12849 H5         542.3708  -601.2127  -372.6227 H5            1 RES     
   12850 C0         542.6609  -593.1370  -371.9174 C0            1 RES     
   12851 C0         543.1467  -591.7126  -372.2039 C0            1 RES     
   12852 C0         544.1122  -591.1078  -371.1799 C0            1 RES     
   12853 C0         543.5576  -590.9366  -369.7568 C0            1 RES     
   12854 C0         542.1517  -590.3033  -369.7184 C0            1 RES     
   12855 C0         541.7479  -589.8793  -368.3011 C0            1 RES     
   12856 C0         542.3974  -588.5376  -367.9275 C0            1 RES     
   12857 C0         542.0601  -588.1273  -366.4935 C0            1 RES     
   12858 C0         542.5302  -586.6945  -366.2242 C0            1 RES     
   12859 C0         542.5325  -586.2398  -364.7510 C0            1 RES     
   12860 C0         541.2055  -586.2951  -363.9679 C0            1 RES     
   12861 C0         540.8594  -587.7015  -363.4298 C0            1 RES     
   12862 C0         539.5739  -587.7823  -362.5826 C0            1 RES     
   12863 C0         539.6690  -587.3516  -361.0991 C0            1 RES     
   12864 C0         539.9407  -585.8737  -360.7817 C0            1 RES     
   12865 C0         538.9149  -584.9334  -361.4115 C0            1 RES     
   12866 H6         542.2225  -593.1528  -370.8971 H6            1 RES     
   12867 H6         543.5290  -593.8318  -371.9177 H6            1 RES     
   12868 H6         543.6868  -591.7251  -373.1493 H6            1 RES     
   12869 H6         542.2866  -591.0241  -372.2966 H6            1 RES     
   12870 H6         545.0542  -591.6963  -371.1359 H6            1 RES     
   12871 H6         544.3675  -590.0939  -371.5621 H6            1 RES     
   12872 H6         543.5072  -591.9202  -369.2411 H6            1 RES     
   12873 H6         544.2968  -590.3129  -369.2131 H6            1 RES     
   12874 H6         542.0738  -589.4237  -370.3943 H6            1 RES     
   12875 H6         541.4322  -591.0714  -370.0746 H6            1 RES     
   12876 H6         541.9971  -590.6866  -367.5771 H6            1 RES     
   12877 H6         540.6470  -589.7230  -368.2783 H6            1 RES     
   12878 H6         543.5019  -588.5819  -368.0247 H6            1 RES     
   12879 H6         542.0128  -587.7679  -368.6342 H6            1 RES     
   12880 H6         540.9590  -588.1633  -366.3678 H6            1 RES     
   12881 H6         542.5591  -588.8410  -365.8020 H6            1 RES     
   12882 H6         543.5807  -586.5872  -366.5747 H6            1 RES     
   12883 H6         541.9004  -586.0042  -366.8291 H6            1 RES     
   12884 H6         543.3131  -586.7856  -364.1784 H6            1 RES     
   12885 H6         542.8449  -585.1721  -364.7895 H6            1 RES     
   12886 H6         540.3779  -585.8678  -364.5745 H6            1 RES     
   12887 H6         541.3609  -585.6331  -363.1075 H6            1 RES     
   12888 H6         540.6810  -588.3653  -364.2872 H6            1 RES     
   12889 H6         541.7070  -588.1291  -362.8516 H6            1 RES     
   12890 H6         539.3137  -588.8636  -362.5334 H6            1 RES     
   12891 H6         538.7343  -587.2791  -363.1070 H6            1 RES     
   12892 H6         538.6943  -587.6113  -360.6303 H6            1 RES     
   12893 H6         540.4497  -587.9642  -360.5972 H6            1 RES     
   12894 H6         539.8957  -585.7501  -359.6780 H6            1 RES     
   12895 H6         540.9658  -585.5862  -361.0725 H6            1 RES     
   12896 H6         537.8919  -585.1960  -361.0684 H6            1 RES     
   12897 H6         539.1363  -583.8888  -361.1078 H6            1 RES     
   12898 H6         538.9539  -584.9875  -362.5185 H6            1 RES     
   12899 C0         542.0747  -593.8213  -374.3996 C0            1 RES     
   12900 C0         541.9931  -592.5597  -375.2937 C0            1 RES     
   12901 C0         542.6412  -592.6304  -376.6934 C0            1 RES     
   12902 C0         544.1828  -592.5073  -376.7785 C0            1 RES     
   12903 C0         544.7271  -591.2979  -375.9900 C0            1 RES     
   12904 C0         546.1611  -590.8754  -376.3407 C0            1 RES     
   12905 C0         546.2028  -590.0303  -377.6245 C0            1 RES     
   12906 C0         547.6221  -589.5267  -377.9257 C0            1 RES     
   12907 C0         547.6026  -588.5370  -379.0981 C0            1 RES     
   12908 C0         548.9687  -588.1461  -379.7023 C0            1 RES     
   12909 C0         549.9931  -587.4058  -378.8163 C0            1 RES     
   12910 C0         550.7768  -588.3207  -377.8531 C0            1 RES     
   12911 C0         551.8748  -587.6152  -377.0288 C0            1 RES     
   12912 C0         553.2367  -587.3590  -377.7212 C0            1 RES     
   12913 C0         553.2962  -586.3489  -378.8773 C0            1 RES     
   12914 C0         552.7885  -584.9636  -378.4823 C0            1 RES     
   12915 H6         543.1118  -594.2195  -374.3631 H6            1 RES     
   12916 H6         541.4535  -594.5829  -374.9224 H6            1 RES     
   12917 H6         540.9114  -592.3981  -375.4807 H6            1 RES     
   12918 H6         542.3749  -591.6566  -374.7993 H6            1 RES     
   12919 H6         542.2945  -593.5338  -377.2395 H6            1 RES     
   12920 H6         542.2504  -591.7458  -377.2446 H6            1 RES     
   12921 H6         544.6869  -593.4297  -376.4171 H6            1 RES     
   12922 H6         544.4198  -592.3910  -377.8573 H6            1 RES     
   12923 H6         544.0677  -590.4085  -376.0980 H6            1 RES     
   12924 H6         544.7338  -591.6023  -374.9351 H6            1 RES     
   12925 H6         546.8317  -591.7610  -376.3918 H6            1 RES     
   12926 H6         546.5214  -590.2169  -375.5207 H6            1 RES     
   12927 H6         545.8251  -590.6135  -378.4903 H6            1 RES     
   12928 H6         545.5401  -589.1476  -377.4749 H6            1 RES     
   12929 H6         547.9967  -589.0006  -377.0265 H6            1 RES     
   12930 H6         548.2669  -590.4000  -378.1624 H6            1 RES     
   12931 H6         547.0304  -589.0016  -379.9312 H6            1 RES     
   12932 H6         547.0562  -587.6195  -378.7839 H6            1 RES     
   12933 H6         549.4553  -589.0334  -380.1617 H6            1 RES     
   12934 H6         548.7143  -587.4493  -380.5324 H6            1 RES     
   12935 H6         549.5058  -586.5650  -378.2766 H6            1 RES     
   12936 H6         550.7092  -586.9699  -379.5243 H6            1 RES     
   12937 H6         550.0677  -588.7201  -377.1145 H6            1 RES     
   12938 H6         551.2230  -589.1840  -378.3924 H6            1 RES     
   12939 H6         552.1229  -588.3155  -376.1999 H6            1 RES     
   12940 H6         551.4730  -586.6948  -376.5547 H6            1 RES     
   12941 H6         553.9295  -586.9891  -376.9331 H6            1 RES     
   12942 H6         553.6412  -588.3287  -378.0853 H6            1 RES     
   12943 H6         554.3594  -586.2529  -379.1887 H6            1 RES     
   12944 H6         552.7577  -586.7248  -379.7644 H6            1 RES     
   12945 H6         553.3747  -584.5697  -377.6250 H6            1 RES     
   12946 H6         552.9037  -584.2693  -379.3410 H6            1 RES     
   12947 H6         551.7150  -584.9991  -378.2061 H6            1 RES     
   12948 C0         543.1992  -606.1325  -370.6311 C0            1 RES     
   12949 C1         542.1731  -604.9804  -370.6116 C1            1 RES     
   12950 C1         540.7638  -605.4186  -370.5431 C1            1 RES     
   12951 S2         539.8324  -604.2089  -371.4954 S2            1 RES     
   12952 C1         541.0720  -603.0523  -370.8710 C1            1 RES     
   12953 C1         542.2935  -603.6576  -370.6422 C1            1 RES     
   12954 C1         540.9236  -606.8070  -370.9491 C1            1 RES     
   12955 C1         542.2152  -607.2472  -370.9753 C1            1 RES     
   12956 C1         542.3161  -608.6140  -371.2918 C1            1 RES     
   12957 C1         541.0405  -609.2040  -371.4600 C1            1 RES     
   12958 S2         539.8377  -608.0296  -371.2180 S2            1 RES     
   12959 H3         543.2143  -603.0980  -370.6272 H3            1 RES     
   12960 H3         543.2536  -609.1492  -371.3771 H3            1 RES     
   12961 N4         541.7087  -611.3707  -372.4223 N4            1 RES     
   12962 C1         541.4879  -612.6547  -372.8335 C1            1 RES     
   12963 C1         540.2473  -613.2707  -372.6291 C1            1 RES     
   12964 C1         539.2467  -612.5451  -371.9950 C1            1 RES     
   12965 N4         538.0154  -613.0439  -371.7258 N4            1 RES     
   12966 S2         537.2783  -611.7717  -370.9734 S2            1 RES     
   12967 N4         538.4366  -610.5938  -370.9722 N4            1 RES     
   12968 C1         539.4834  -611.2036  -371.5887 C1            1 RES     
   12969 C1         540.7456  -610.6140  -371.8161 C1            1 RES     
   12970 H5         542.2787  -613.2024  -373.3296 H5            1 RES     
   12971 C0         543.7620  -606.3834  -369.1944 C0            1 RES     
   12972 C0         544.5923  -605.2184  -368.6464 C0            1 RES     
   12973 C0         545.0474  -605.3381  -367.1886 C0            1 RES     
   12974 C0         543.9253  -605.4035  -366.1403 C0            1 RES     
   12975 C0         542.8261  -604.3421  -366.3514 C0            1 RES     
   12976 C0         541.8852  -604.2376  -365.1451 C0            1 RES     
   12977 C0         542.5240  -603.3997  -364.0265 C0            1 RES     
   12978 C0         541.6295  -603.3364  -362.7878 C0            1 RES     
   12979 C0         542.1822  -602.3218  -361.7821 C0            1 RES     
   12980 C0         541.5683  -602.3547  -360.3682 C0            1 RES     
   12981 C0         540.0467  -602.1496  -360.2279 C0            1 RES     
   12982 C0         539.2192  -603.4239  -360.5092 C0            1 RES     
   12983 C0         537.6974  -603.2753  -360.3117 C0            1 RES     
   12984 C0         537.1535  -603.3664  -358.8656 C0            1 RES     
   12985 C0         537.5221  -602.2537  -357.8732 C0            1 RES     
   12986 C0         537.1277  -600.8634  -358.3675 C0            1 RES     
   12987 H6         542.8956  -606.5377  -368.5168 H6            1 RES     
   12988 H6         544.3703  -607.3139  -369.1743 H6            1 RES     
   12989 H6         545.5044  -605.1483  -369.2369 H6            1 RES     
   12990 H6         544.0340  -604.2690  -368.7432 H6            1 RES     
   12991 H6         545.7185  -606.2148  -367.0596 H6            1 RES     
   12992 H6         545.6461  -604.4233  -366.9791 H6            1 RES     
   12993 H6         543.4442  -606.4056  -366.1517 H6            1 RES     
   12994 H6         544.4199  -605.2825  -365.1546 H6            1 RES     
   12995 H6         543.2538  -603.3379  -366.5639 H6            1 RES     
   12996 H6         542.2307  -604.6531  -367.2365 H6            1 RES     
   12997 H6         541.5953  -605.2546  -364.7995 H6            1 RES     
   12998 H6         540.9618  -603.7043  -365.4613 H6            1 RES     
   12999 H6         543.5079  -603.8134  -363.7227 H6            1 RES     
   13000 H6         542.6823  -602.3714  -364.4232 H6            1 RES     
   13001 H6         540.6193  -603.0031  -363.1010 H6            1 RES     
   13002 H6         541.5872  -604.3524  -362.3380 H6            1 RES     
   13003 H6         543.2704  -602.5073  -361.6430 H6            1 RES     
   13004 H6         542.0663  -601.3041  -362.2179 H6            1 RES     
   13005 H6         541.8569  -603.2903  -359.8423 H6            1 RES     
   13006 H6         542.0621  -601.5144  -359.8304 H6            1 RES     
   13007 H6         539.7111  -601.2916  -360.8497 H6            1 RES     
   13008 H6         539.8972  -601.8750  -359.1768 H6            1 RES     
   13009 H6         539.3472  -603.6926  -361.5670 H6            1 RES     
   13010 H6         539.5855  -604.2812  -359.9038 H6            1 RES     
   13011 H6         537.2405  -604.1498  -360.8273 H6            1 RES     
   13012 H6         537.3270  -602.3700  -360.8373 H6            1 RES     
   13013 H6         536.0440  -603.3780  -358.9442 H6            1 RES     
   13014 H6         537.4629  -604.3403  -358.4267 H6            1 RES     
   13015 H6         536.9800  -602.4531  -356.9236 H6            1 RES     
   13016 H6         538.5951  -602.2884  -357.6171 H6            1 RES     
   13017 H6         536.0364  -600.8229  -358.5690 H6            1 RES     
   13018 H6         537.3755  -600.1110  -357.5897 H6            1 RES     
   13019 H6         537.6798  -600.5995  -359.2924 H6            1 RES     
   13020 C0         544.3134  -606.0430  -371.7543 C0            1 RES     
   13021 C0         544.9166  -604.6358  -371.9857 C0            1 RES     
   13022 C0         546.1271  -604.5227  -372.9376 C0            1 RES     
   13023 C0         547.5120  -604.9518  -372.3929 C0            1 RES     
   13024 C0         547.8366  -604.3144  -371.0257 C0            1 RES     
   13025 C0         549.3147  -604.3615  -370.6123 C0            1 RES     
   13026 C0         550.1287  -603.2524  -371.2988 C0            1 RES     
   13027 C0         551.5863  -603.2371  -370.8153 C0            1 RES     
   13028 C0         552.3228  -602.0107  -371.3701 C0            1 RES     
   13029 C0         553.8578  -601.9863  -371.2049 C0            1 RES     
   13030 C0         554.4557  -601.9673  -369.7820 C0            1 RES     
   13031 C0         554.4883  -603.3450  -369.0893 C0            1 RES     
   13032 C0         555.1719  -603.3654  -367.7054 C0            1 RES     
   13033 C0         556.7193  -603.4325  -367.6720 C0            1 RES     
   13034 C0         557.5196  -602.2217  -368.1760 C0            1 RES     
   13035 C0         557.1656  -600.9291  -367.4433 C0            1 RES     
   13036 H6         545.1067  -606.7840  -371.5155 H6            1 RES     
   13037 H6         543.8831  -606.3349  -372.7386 H6            1 RES     
   13038 H6         544.1109  -604.0430  -372.4662 H6            1 RES     
   13039 H6         545.1830  -604.1230  -371.0519 H6            1 RES     
   13040 H6         545.9154  -605.0332  -373.9015 H6            1 RES     
   13041 H6         546.2281  -603.4364  -373.1588 H6            1 RES     
   13042 H6         547.5915  -606.0568  -372.3034 H6            1 RES     
   13043 H6         548.2535  -604.6180  -373.1494 H6            1 RES     
   13044 H6         547.4967  -603.2564  -370.9762 H6            1 RES     
   13045 H6         547.2788  -604.8963  -370.2802 H6            1 RES     
   13046 H6         549.7411  -605.3735  -370.7877 H6            1 RES     
   13047 H6         549.3594  -604.1529  -369.5213 H6            1 RES     
   13048 H6         550.1056  -603.3747  -372.4020 H6            1 RES     
   13049 H6         549.6615  -602.2749  -371.0403 H6            1 RES     
   13050 H6         551.5797  -603.1739  -369.7100 H6            1 RES     
   13051 H6         552.0818  -604.1741  -371.1483 H6            1 RES     
   13052 H6         552.1406  -601.9669  -372.4667 H6            1 RES     
   13053 H6         551.8832  -601.0934  -370.9181 H6            1 RES     
   13054 H6         554.3214  -602.8124  -371.7860 H6            1 RES     
   13055 H6         554.1724  -601.0336  -371.6873 H6            1 RES     
   13056 H6         553.9440  -601.2057  -369.1545 H6            1 RES     
   13057 H6         555.4923  -601.6352  -369.9205 H6            1 RES     
   13058 H6         553.4501  -603.6563  -368.9072 H6            1 RES     
   13059 H6         554.9602  -604.1116  -369.7411 H6            1 RES     
   13060 H6         554.8518  -604.3185  -367.2278 H6            1 RES     
   13061 H6         554.7802  -602.5454  -367.0670 H6            1 RES     
   13062 H6         557.0079  -603.5907  -366.6092 H6            1 RES     
   13063 H6         557.0510  -604.3294  -368.2395 H6            1 RES     
   13064 H6         558.5977  -602.4334  -368.0047 H6            1 RES     
   13065 H6         557.4093  -602.0960  -369.2670 H6            1 RES     
   13066 H6         557.3344  -601.0477  -366.3519 H6            1 RES     
   13067 H6         557.8098  -600.1052  -367.8156 H6            1 RES     
   13068 H6         556.1072  -600.6499  -367.6217 H6            1 RES     
   13069 C0         541.0784  -618.4363  -373.4785 C0            1 RES     
   13070 C1         540.4146  -617.0500  -373.3453 C1            1 RES     
   13071 C1         539.0895  -616.9426  -373.9898 C1            1 RES     
   13072 S2         538.9825  -615.2538  -374.6016 S2            1 RES     
   13073 C1         539.9708  -614.8687  -373.1391 C1            1 RES     
   13074 C1         540.7898  -615.9166  -372.7622 C1            1 RES     
   13075 C1         539.1502  -618.1076  -374.8599 C1            1 RES     
   13076 C1         540.1832  -618.9603  -374.5981 C1            1 RES     
   13077 C1         540.1550  -620.1111  -375.4063 C1            1 RES     
   13078 C1         539.0279  -620.1170  -376.2628 C1            1 RES     
   13079 S2         538.1108  -618.7119  -376.0004 S2            1 RES     
   13080 H3         541.6802  -615.7628  -372.1750 H3            1 RES     
   13081 H3         540.8945  -620.9010  -375.3631 H3            1 RES     
   13082 N4         539.6386  -621.9912  -377.7397 N4            1 RES     
   13083 C1         539.3962  -622.9236  -378.7084 C1            1 RES     
   13084 C1         538.1160  -623.0750  -379.2549 C1            1 RES     
   13085 C1         537.0971  -622.2555  -378.7857 C1            1 RES     
   13086 N4         535.8167  -622.3257  -379.2251 N4            1 RES     
   13087 S2         535.0733  -621.1546  -378.3288 S2            1 RES     
   13088 N4         536.2941  -620.5375  -377.4024 N4            1 RES     
   13089 C1         537.3667  -621.2767  -377.7908 C1            1 RES     
   13090 C1         538.6712  -621.1497  -377.2667 C1            1 RES     
   13091 H5         540.2040  -623.5500  -379.0641 H5            1 RES     
   13092 C0         540.8247  -619.2863  -372.1913 C0            1 RES     
   13093 C0         541.5007  -618.7218  -370.9377 C0            1 RES     
   13094 C0         541.1702  -619.4229  -369.6164 C0            1 RES     
   13095 C0         539.6952  -619.3796  -369.1864 C0            1 RES     
   13096 C0         539.0613  -617.9788  -369.3093 C0            1 RES     
   13097 C0         537.6990  -617.8981  -368.6099 C0            1 RES     
   13098 C0         537.8745  -617.7206  -367.0935 C0            1 RES     
   13099 C0         536.5285  -617.7028  -366.3680 C0            1 RES     
   13100 C0         536.7185  -617.3046  -364.9011 C0            1 RES     
   13101 C0         535.5104  -617.5258  -363.9692 C0            1 RES     
   13102 C0         534.1800  -616.8305  -364.3210 C0            1 RES     
   13103 C0         533.3577  -617.5710  -365.3994 C0            1 RES     
   13104 C0         531.9889  -616.9424  -365.7279 C0            1 RES     
   13105 C0         530.8139  -617.2500  -364.7687 C0            1 RES     
   13106 C0         530.8717  -616.6940  -363.3381 C0            1 RES     
   13107 C0         531.0409  -615.1765  -363.2979 C0            1 RES     
   13108 H6         539.7287  -619.3058  -372.0126 H6            1 RES     
   13109 H6         541.1550  -620.3362  -372.3497 H6            1 RES     
   13110 H6         542.5778  -618.8191  -371.0636 H6            1 RES     
   13111 H6         541.2535  -617.6510  -370.8165 H6            1 RES     
   13112 H6         541.5126  -620.4802  -369.6388 H6            1 RES     
   13113 H6         541.7608  -618.8952  -368.8342 H6            1 RES     
   13114 H6         539.0935  -620.0857  -369.7989 H6            1 RES     
   13115 H6         539.6711  -619.7436  -368.1385 H6            1 RES     
   13116 H6         539.7247  -617.1854  -368.9005 H6            1 RES     
   13117 H6         538.9140  -617.7755  -370.3917 H6            1 RES     
   13118 H6         537.0876  -618.7923  -368.8636 H6            1 RES     
   13119 H6         537.1632  -616.9969  -368.9809 H6            1 RES     
   13120 H6         538.4914  -618.5346  -366.6596 H6            1 RES     
   13121 H6         538.3999  -616.7535  -366.9253 H6            1 RES     
   13122 H6         535.8779  -616.9475  -366.8536 H6            1 RES     
   13123 H6         536.0795  -618.7172  -366.4447 H6            1 RES     
   13124 H6         537.5479  -617.9066  -364.4680 H6            1 RES     
   13125 H6         537.0257  -616.2351  -364.8698 H6            1 RES     
   13126 H6         535.3240  -618.6123  -363.8279 H6            1 RES     
   13127 H6         535.8397  -617.1223  -362.9854 H6            1 RES     
   13128 H6         534.3568  -615.7671  -364.5918 H6            1 RES     
   13129 H6         533.6030  -616.8428  -363.3885 H6            1 RES     
   13130 H6         533.9207  -617.5436  -366.3426 H6            1 RES     
   13131 H6         533.2151  -618.6402  -365.1305 H6            1 RES     
   13132 H6         531.6738  -617.3962  -366.6945 H6            1 RES     
   13133 H6         532.0991  -615.8529  -365.9117 H6            1 RES     
   13134 H6         529.8990  -616.8320  -365.2436 H6            1 RES     
   13135 H6         530.6795  -618.3523  -364.7081 H6            1 RES     
   13136 H6         529.9146  -616.9518  -362.8353 H6            1 RES     
   13137 H6         531.6615  -617.1918  -362.7495 H6            1 RES     
   13138 H6         530.2104  -614.6830  -363.8457 H6            1 RES     
   13139 H6         531.0277  -614.8315  -362.2428 H6            1 RES     
   13140 H6         532.0073  -614.8727  -363.7492 H6            1 RES     
   13141 C0         542.5871  -618.4334  -373.9631 C0            1 RES     
   13142 C0         543.4882  -617.3426  -373.3340 C0            1 RES     
   13143 C0         545.0021  -617.4044  -373.6317 C0            1 RES     
   13144 C0         545.8444  -618.4493  -372.8586 C0            1 RES     
   13145 C0         545.5928  -618.4074  -371.3369 C0            1 RES     
   13146 C0         546.6519  -619.1103  -370.4755 C0            1 RES     
   13147 C0         547.8932  -618.2258  -370.2733 C0            1 RES     
   13148 C0         548.9134  -618.8867  -369.3346 C0            1 RES     
   13149 C0         550.0482  -617.9091  -369.0017 C0            1 RES     
   13150 C0         551.2885  -618.4966  -368.2944 C0            1 RES     
   13151 C0         551.1241  -619.1170  -366.8906 C0            1 RES     
   13152 C0         550.5526  -620.5496  -366.8933 C0            1 RES     
   13153 C0         550.4725  -621.2246  -365.5074 C0            1 RES     
   13154 C0         551.7688  -621.8586  -364.9437 C0            1 RES     
   13155 C0         552.9309  -620.9330  -364.5520 C0            1 RES     
   13156 C0         552.5289  -619.8779  -363.5234 C0            1 RES     
   13157 H6         543.0081  -619.4477  -373.7922 H6            1 RES     
   13158 H6         542.6323  -618.2443  -375.0592 H6            1 RES     
   13159 H6         543.1434  -616.3835  -373.7728 H6            1 RES     
   13160 H6         543.3698  -617.2619  -372.2453 H6            1 RES     
   13161 H6         545.1822  -617.4942  -374.7244 H6            1 RES     
   13162 H6         545.4058  -616.4167  -373.3144 H6            1 RES     
   13163 H6         545.6545  -619.4807  -373.2271 H6            1 RES     
   13164 H6         546.9061  -618.2024  -373.0716 H6            1 RES     
   13165 H6         545.4839  -617.3634  -370.9686 H6            1 RES     
   13166 H6         544.6453  -618.9372  -371.1718 H6            1 RES     
   13167 H6         546.9040  -620.1082  -370.8968 H6            1 RES     
   13168 H6         546.2092  -619.2636  -369.4673 H6            1 RES     
   13169 H6         548.3771  -618.0006  -371.2467 H6            1 RES     
   13170 H6         547.5597  -617.2680  -369.8127 H6            1 RES     
   13171 H6         548.3915  -619.1539  -368.3955 H6            1 RES     
   13172 H6         549.3146  -619.7971  -369.8292 H6            1 RES     
   13173 H6         550.4249  -617.4811  -369.9569 H6            1 RES     
   13174 H6         549.6341  -617.0715  -368.3967 H6            1 RES     
   13175 H6         551.8027  -619.2244  -368.9585 H6            1 RES     
   13176 H6         551.9741  -617.6280  -368.1722 H6            1 RES     
   13177 H6         550.5340  -618.4422  -366.2331 H6            1 RES     
   13178 H6         552.1427  -619.1613  -366.4852 H6            1 RES     
   13179 H6         549.5158  -620.4991  -367.2544 H6            1 RES     
   13180 H6         551.1193  -621.2071  -367.5876 H6            1 RES     
   13181 H6         549.7845  -622.0902  -365.6356 H6            1 RES     
   13182 H6         549.9915  -620.5453  -364.7722 H6            1 RES     
   13183 H6         551.4771  -622.4165  -364.0264 H6            1 RES     
   13184 H6         552.1497  -622.6047  -365.6749 H6            1 RES     
   13185 H6         553.7311  -621.5640  -364.1072 H6            1 RES     
   13186 H6         553.3825  -620.4605  -365.4414 H6            1 RES     
   13187 H6         552.1287  -620.3655  -362.6093 H6            1 RES     
   13188 H6         553.4192  -619.2758  -363.2449 H6            1 RES     
   13189 H6         551.7621  -619.1923  -363.9382 H6            1 RES     
   13190 C0         538.2284  -627.6906  -381.8586 C0            1 RES     
   13191 C1         537.8660  -626.2630  -381.3990 C1            1 RES     
   13192 C1         537.0601  -625.4947  -382.3701 C1            1 RES     
   13193 S2         537.5898  -623.7839  -382.1949 S2            1 RES     
   13194 C1         537.8119  -624.2352  -380.4596 C1            1 RES     
   13195 C1         538.1292  -625.5706  -380.2960 C1            1 RES     
   13196 C1         537.3013  -626.2897  -383.5651 C1            1 RES     
   13197 C1         537.8949  -627.4969  -383.3353 C1            1 RES     
   13198 C1         538.0332  -628.2651  -384.5054 C1            1 RES     
   13199 C1         537.4762  -627.6067  -385.6279 C1            1 RES     
   13200 S2         536.8387  -626.1081  -385.1460 S2            1 RES     
   13201 H3         538.6410  -625.9328  -379.4195 H3            1 RES     
   13202 H3         538.4921  -629.2454  -384.5368 H3            1 RES     
   13203 N4         538.3405  -629.0501  -387.4270 N4            1 RES     
   13204 C1         538.4145  -629.5000  -388.7148 C1            1 RES     
   13205 C1         537.5499  -629.0054  -389.6989 C1            1 RES     
   13206 C1         536.6124  -628.0478  -389.3328 C1            1 RES     
   13207 N4         535.7122  -627.5130  -390.1937 N4            1 RES     
   13208 S2         534.8750  -626.4712  -389.2235 S2            1 RES     
   13209 N4         535.5978  -626.6446  -387.7481 N4            1 RES     
   13210 C1         536.5582  -627.5746  -387.9935 C1            1 RES     
   13211 C1         537.4496  -628.0930  -387.0295 C1            1 RES     
   13212 H5         539.1546  -630.2434  -388.9816 H5            1 RES     
   13213 C0         537.2302  -628.7277  -381.2486 C0            1 RES     
   13214 C0         537.3197  -628.8449  -379.7238 C0            1 RES     
   13215 C0         536.2685  -629.7325  -379.0501 C0            1 RES     
   13216 C0         534.8081  -629.2824  -379.2141 C0            1 RES     
   13217 C0         534.5966  -627.7775  -378.9495 C0            1 RES     
   13218 C0         533.1112  -627.4149  -378.8334 C0            1 RES     
   13219 C0         532.5710  -627.7686  -377.4388 C0            1 RES     
   13220 C0         531.0748  -627.4750  -377.3221 C0            1 RES     
   13221 C0         530.6138  -627.6246  -375.8690 C0            1 RES     
   13222 C0         529.0905  -627.6533  -375.6331 C0            1 RES     
   13223 C0         528.2546  -626.4499  -376.1131 C0            1 RES     
   13224 C0         527.9217  -626.4863  -377.6215 C0            1 RES     
   13225 C0         527.0288  -625.3346  -378.1247 C0            1 RES     
   13226 C0         525.5040  -625.4598  -377.8910 C0            1 RES     
   13227 C0         524.9778  -625.4110  -376.4489 C0            1 RES     
   13228 C0         525.3989  -624.1444  -375.7063 C0            1 RES     
   13229 H6         536.2024  -628.3974  -381.5091 H6            1 RES     
   13230 H6         537.3845  -629.7288  -381.7071 H6            1 RES     
   13231 H6         538.2835  -629.2869  -379.4763 H6            1 RES     
   13232 H6         537.2586  -627.8446  -379.2567 H6            1 RES     
   13233 H6         536.3667  -630.7847  -379.3948 H6            1 RES     
   13234 H6         536.5031  -629.7124  -377.9621 H6            1 RES     
   13235 H6         534.4482  -629.5060  -380.2418 H6            1 RES     
   13236 H6         534.2156  -629.9035  -378.5111 H6            1 RES     
   13237 H6         535.1238  -627.4394  -378.0306 H6            1 RES     
   13238 H6         535.0275  -627.2255  -379.8121 H6            1 RES     
   13239 H6         532.5348  -627.9067  -379.6481 H6            1 RES     
   13240 H6         533.0051  -626.3141  -378.9514 H6            1 RES     
   13241 H6         532.7335  -628.8405  -377.2020 H6            1 RES     
   13242 H6         533.1289  -627.1557  -376.6952 H6            1 RES     
   13243 H6         530.8968  -626.4275  -377.6391 H6            1 RES     
   13244 H6         530.5295  -628.1845  -377.9822 H6            1 RES     
   13245 H6         530.9999  -628.5866  -375.4648 H6            1 RES     
   13246 H6         531.0701  -626.8014  -375.2747 H6            1 RES     
   13247 H6         528.6518  -628.5864  -376.0478 H6            1 RES     
   13248 H6         528.9807  -627.7067  -374.5267 H6            1 RES     
   13249 H6         528.7425  -625.4955  -375.8189 H6            1 RES     
   13250 H6         527.3121  -626.5246  -375.5573 H6            1 RES     
   13251 H6         528.8602  -626.3899  -378.1849 H6            1 RES     
   13252 H6         527.4630  -627.4577  -377.9073 H6            1 RES     
   13253 H6         527.1327  -625.3359  -379.2331 H6            1 RES     
   13254 H6         527.4232  -624.3585  -377.7717 H6            1 RES     
   13255 H6         525.0288  -624.6168  -378.4395 H6            1 RES     
   13256 H6         525.1454  -626.4021  -378.3602 H6            1 RES     
   13257 H6         523.8675  -625.4373  -376.4921 H6            1 RES     
   13258 H6         525.2759  -626.3122  -375.8859 H6            1 RES     
   13259 H6         525.0455  -623.2441  -376.2521 H6            1 RES     
   13260 H6         524.9502  -624.1454  -374.6909 H6            1 RES     
   13261 H6         526.5014  -624.0960  -375.5975 H6            1 RES     
   13262 C0         539.7528  -628.0961  -381.7077 C0            1 RES     
   13263 C0         540.4362  -627.6469  -380.3928 C0            1 RES     
   13264 C0         541.8631  -628.1665  -380.1131 C0            1 RES     
   13265 C0         542.0114  -629.6244  -379.6118 C0            1 RES     
   13266 C0         541.0766  -629.9436  -378.4265 C0            1 RES     
   13267 C0         541.4350  -631.2047  -377.6271 C0            1 RES     
   13268 C0         542.5736  -630.9361  -376.6293 C0            1 RES     
   13269 C0         542.8700  -632.1687  -375.7623 C0            1 RES     
   13270 C0         543.8730  -631.8175  -374.6555 C0            1 RES     
   13271 C0         544.4828  -632.9974  -373.8682 C0            1 RES     
   13272 C0         543.5501  -633.8986  -373.0313 C0            1 RES     
   13273 C0         542.7831  -634.9545  -373.8534 C0            1 RES     
   13274 C0         541.9205  -635.9294  -373.0238 C0            1 RES     
   13275 C0         542.6378  -637.1285  -372.3548 C0            1 RES     
   13276 C0         543.6260  -636.8506  -371.2117 C0            1 RES     
   13277 C0         542.9954  -636.0748  -370.0570 C0            1 RES     
   13278 H6         539.8342  -629.1960  -381.8454 H6            1 RES     
   13279 H6         540.3523  -627.6229  -382.5176 H6            1 RES     
   13280 H6         540.5372  -626.5447  -380.4725 H6            1 RES     
   13281 H6         539.8299  -627.8529  -379.5007 H6            1 RES     
   13282 H6         542.5223  -627.9899  -380.9899 H6            1 RES     
   13283 H6         542.2494  -627.5350  -379.2818 H6            1 RES     
   13284 H6         541.8242  -630.3576  -380.4260 H6            1 RES     
   13285 H6         543.0706  -629.7313  -379.2953 H6            1 RES     
   13286 H6         541.0104  -629.0903  -377.7160 H6            1 RES     
   13287 H6         540.0830  -630.1142  -378.8617 H6            1 RES     
   13288 H6         541.6581  -632.0540  -378.3095 H6            1 RES     
   13289 H6         540.5440  -631.4752  -377.0198 H6            1 RES     
   13290 H6         543.4973  -630.6273  -377.1622 H6            1 RES     
   13291 H6         542.2542  -630.1040  -375.9613 H6            1 RES     
   13292 H6         541.9220  -632.4906  -375.2896 H6            1 RES     
   13293 H6         543.2728  -632.9736  -376.4136 H6            1 RES     
   13294 H6         544.7357  -631.2958  -375.1258 H6            1 RES     
   13295 H6         543.3922  -631.1047  -373.9487 H6            1 RES     
   13296 H6         545.0990  -633.6324  -374.5407 H6            1 RES     
   13297 H6         545.1806  -632.5165  -373.1463 H6            1 RES     
   13298 H6         542.8617  -633.2808  -372.4147 H6            1 RES     
   13299 H6         544.2201  -634.4290  -372.3431 H6            1 RES     
   13300 H6         542.0776  -634.4251  -374.5091 H6            1 RES     
   13301 H6         543.4723  -635.5376  -374.5017 H6            1 RES     
   13302 H6         541.2241  -636.4050  -373.7504 H6            1 RES     
   13303 H6         541.2892  -635.3703  -372.3011 H6            1 RES     
   13304 H6         541.8408  -637.7849  -371.9403 H6            1 RES     
   13305 H6         543.1683  -637.7113  -373.1392 H6            1 RES     
   13306 H6         543.9759  -637.8310  -370.8207 H6            1 RES     
   13307 H6         544.5300  -636.3364  -371.5812 H6            1 RES     
   13308 H6         542.1206  -636.6286  -369.6546 H6            1 RES     
   13309 H6         543.7418  -635.9500  -369.2447 H6            1 RES     
   13310 H6         542.6704  -635.0673  -370.3875 H6            1 RES     
   13311 C0         537.9925  -632.3565  -393.7818 C0            1 RES     
   13312 C1         537.7403  -631.0986  -392.9246 C1            1 RES     
   13313 C1         537.6640  -629.8399  -393.6945 C1            1 RES     
   13314 S2         538.3668  -628.5739  -392.6262 S2            1 RES     
   13315 C1         537.6396  -629.5644  -391.3018 C1            1 RES     
   13316 C1         537.5731  -630.9079  -391.6204 C1            1 RES     
   13317 C1         538.2871  -630.2783  -394.9345 C1            1 RES     
   13318 C1         538.4506  -631.6289  -395.0428 C1            1 RES     
   13319 C1         538.9789  -632.0133  -396.2884 C1            1 RES     
   13320 C1         539.1667  -630.8981  -397.1397 C1            1 RES     
   13321 S2         538.6821  -629.4836  -396.3341 S2            1 RES     
   13322 H3         537.5220  -631.6727  -390.8629 H3            1 RES     
   13323 H3         539.1962  -633.0374  -396.5652 H3            1 RES     
   13324 N4         540.4861  -631.9588  -398.9288 N4            1 RES     
   13325 C1         541.0776  -632.0039  -400.1595 C1            1 RES     
   13326 C1         540.9039  -630.9617  -401.0782 C1            1 RES     
   13327 C1         540.1123  -629.8815  -400.7088 C1            1 RES     
   13328 N4         539.8570  -628.8271  -401.5216 N4            1 RES     
   13329 S2         538.8789  -627.8869  -400.5797 S2            1 RES     
   13330 N4         538.7588  -628.7383  -399.1691 N4            1 RES     
   13331 C1         539.5176  -629.8381  -399.4185 C1            1 RES     
   13332 C1         539.7194  -630.9052  -398.5167 C1            1 RES     
   13333 H5         541.6943  -632.8521  -400.4273 H5            1 RES     
   13334 C0         536.6441  -633.0876  -394.0838 C0            1 RES     
   13335 C0         535.9690  -633.6727  -392.8394 C0            1 RES     
   13336 C0         534.5738  -634.2712  -393.0443 C0            1 RES     
   13337 C0         533.4890  -633.2922  -393.5209 C0            1 RES     
   13338 C0         533.4743  -631.9638  -392.7370 C0            1 RES     
   13339 C0         532.2171  -631.1354  -393.0283 C0            1 RES     
   13340 C0         531.0190  -631.6612  -392.2224 C0            1 RES     
   13341 C0         529.7388  -630.8901  -392.5466 C0            1 RES     
   13342 C0         528.6201  -631.2816  -391.5762 C0            1 RES     
   13343 C0         527.1971  -630.8203  -391.9491 C0            1 RES     
   13344 C0         526.9449  -629.3110  -392.1379 C0            1 RES     
   13345 C0         527.3739  -628.7775  -393.5231 C0            1 RES     
   13346 C0         527.0739  -627.2863  -393.7740 C0            1 RES     
   13347 C0         525.6318  -626.9090  -394.1905 C0            1 RES     
   13348 C0         524.5012  -627.0984  -393.1684 C0            1 RES     
   13349 C0         524.7534  -626.3520  -391.8598 C0            1 RES     
   13350 H6         535.9526  -632.3439  -394.5335 H6            1 RES     
   13351 H6         536.8006  -633.8931  -394.8341 H6            1 RES     
   13352 H6         536.5901  -634.4878  -392.4715 H6            1 RES     
   13353 H6         535.8880  -632.9044  -392.0484 H6            1 RES     
   13354 H6         534.6179  -635.1349  -393.7426 H6            1 RES     
   13355 H6         534.2585  -634.6593  -392.0498 H6            1 RES     
   13356 H6         533.6286  -633.0557  -394.5981 H6            1 RES     
   13357 H6         532.5245  -633.8315  -393.4204 H6            1 RES     
   13358 H6         533.5523  -632.1281  -391.6400 H6            1 RES     
   13359 H6         534.3632  -631.3796  -393.0581 H6            1 RES     
   13360 H6         532.0172  -631.1195  -394.1227 H6            1 RES     
   13361 H6         532.3970  -630.0897  -392.6950 H6            1 RES     
   13362 H6         530.8362  -632.7369  -392.4244 H6            1 RES     
   13363 H6         531.2605  -631.5425  -391.1420 H6            1 RES     
   13364 H6         529.9418  -629.8066  -392.4269 H6            1 RES     
   13365 H6         529.4493  -631.1232  -393.5946 H6            1 RES     
   13366 H6         528.5703  -632.3912  -391.5113 H6            1 RES     
   13367 H6         528.8870  -630.8962  -390.5666 H6            1 RES     
   13368 H6         526.8381  -631.3622  -392.8506 H6            1 RES     
   13369 H6         526.5638  -631.1532  -391.0965 H6            1 RES     
   13370 H6         527.4079  -628.7328  -391.3092 H6            1 RES     
   13371 H6         525.8575  -629.1966  -392.0538 H6            1 RES     
   13372 H6         528.4658  -628.8692  -393.6057 H6            1 RES     
   13373 H6         526.9285  -629.3839  -394.3415 H6            1 RES     
   13374 H6         527.6926  -626.9990  -394.6538 H6            1 RES     
   13375 H6         527.4329  -626.6721  -392.9215 H6            1 RES     
   13376 H6         525.6511  -625.8295  -394.4581 H6            1 RES     
   13377 H6         525.3656  -627.4722  -395.1117 H6            1 RES     
   13378 H6         523.5658  -626.7035  -393.6205 H6            1 RES     
   13379 H6         524.3119  -628.1689  -392.9783 H6            1 RES     
   13380 H6         524.8869  -625.2671  -392.0563 H6            1 RES     
   13381 H6         523.8835  -626.4881  -391.1837 H6            1 RES     
   13382 H6         525.6551  -626.7438  -391.3467 H6            1 RES     
   13383 C0         539.1471  -633.3155  -393.2737 C0            1 RES     
   13384 C0         539.1912  -633.5553  -391.7445 C0            1 RES     
   13385 C0         540.1783  -634.6175  -391.2140 C0            1 RES     
   13386 C0         539.7820  -636.1069  -391.3671 C0            1 RES     
   13387 C0         538.3525  -636.3965  -390.8636 C0            1 RES     
   13388 C0         538.0318  -637.8765  -390.6094 C0            1 RES     
   13389 C0         538.5823  -638.3487  -389.2536 C0            1 RES     
   13390 C0         538.1816  -639.8008  -388.9539 C0            1 RES     
   13391 C0         538.5799  -640.1826  -387.5222 C0            1 RES     
   13392 C0         538.4961  -641.6792  -387.1516 C0            1 RES     
   13393 C0         537.1217  -642.3810  -387.1840 C0            1 RES     
   13394 C0         536.6523  -642.7915  -388.5947 C0            1 RES     
   13395 C0         535.3272  -643.5819  -388.6390 C0            1 RES     
   13396 C0         535.3882  -645.0998  -388.3353 C0            1 RES     
   13397 C0         535.7422  -645.5516  -386.9101 C0            1 RES     
   13398 C0         534.8010  -644.9762  -385.8537 C0            1 RES     
   13399 H6         539.0686  -634.2761  -393.8272 H6            1 RES     
   13400 H6         540.1398  -632.8781  -393.5231 H6            1 RES     
   13401 H6         539.5303  -632.5954  -391.3033 H6            1 RES     
   13402 H6         538.2053  -633.7786  -391.3154 H6            1 RES     
   13403 H6         541.1965  -634.4441  -391.6236 H6            1 RES     
   13404 H6         540.2347  -634.4455  -390.1156 H6            1 RES     
   13405 H6         539.8682  -636.4464  -392.4220 H6            1 RES     
   13406 H6         540.5170  -636.6812  -390.7642 H6            1 RES     
   13407 H6         538.1223  -635.8279  -389.9357 H6            1 RES     
   13408 H6         537.6764  -636.0563  -391.6592 H6            1 RES     
   13409 H6         538.3838  -638.5071  -391.4550 H6            1 RES     
   13410 H6         536.9257  -637.9690  -390.5475 H6            1 RES     
   13411 H6         539.6882  -638.2563  -389.2257 H6            1 RES     
   13412 H6         538.1513  -637.6939  -388.4624 H6            1 RES     
   13413 H6         537.0811  -639.8782  -389.0461 H6            1 RES     
   13414 H6         538.6814  -640.4670  -389.6893 H6            1 RES     
   13415 H6         539.6451  -639.8983  -387.3739 H6            1 RES     
   13416 H6         537.9689  -639.5856  -386.8086 H6            1 RES     
   13417 H6         539.2218  -642.2669  -387.7541 H6            1 RES     
   13418 H6         538.8423  -641.7217  -386.0944 H6            1 RES     
   13419 H6         536.3576  -641.7656  -386.6613 H6            1 RES     
   13420 H6         537.2633  -643.2966  -386.5962 H6            1 RES     
   13421 H6         536.4646  -641.8733  -389.1689 H6            1 RES     
   13422 H6         537.4391  -643.3673  -389.1284 H6            1 RES     
   13423 H6         534.9855  -643.5337  -389.6973 H6            1 RES     
   13424 H6         534.5498  -643.0704  -388.0328 H6            1 RES     
   13425 H6         534.3797  -645.5105  -388.5632 H6            1 RES     
   13426 H6         536.1042  -645.5772  -389.0394 H6            1 RES     
   13427 H6         535.6641  -646.6603  -386.8772 H6            1 RES     
   13428 H6         536.7932  -645.3186  -386.6665 H6            1 RES     
   13429 H6         533.7517  -645.2643  -386.0763 H6            1 RES     
   13430 H6         535.0763  -645.3776  -384.8559 H6            1 RES     
   13431 H6         534.8768  -643.8703  -385.8159 H6            1 RES     
   13432 C0         542.5827  -632.8810  -405.7251 C0            1 RES     
   13433 C1         542.2017  -631.9303  -404.5712 C1            1 RES     
   13434 C1         542.7494  -630.5641  -404.6991 C1            1 RES     
   13435 S2         543.0870  -630.0171  -403.0184 S2            1 RES     
   13436 C1         541.6382  -631.0163  -402.6105 C1            1 RES     
   13437 C1         541.4721  -632.0848  -403.4716 C1            1 RES     
   13438 C1         543.7906  -630.8137  -405.6848 C1            1 RES     
   13439 C1         543.7195  -632.0344  -406.2911 C1            1 RES     
   13440 C1         544.6927  -632.2001  -407.2930 C1            1 RES     
   13441 C1         545.4776  -631.0330  -407.4530 C1            1 RES     
   13442 S2         544.9527  -629.8440  -406.3597 S2            1 RES     
   13443 H3         540.9173  -632.9646  -403.1897 H3            1 RES     
   13444 H3         544.8118  -633.1024  -407.8797 H3            1 RES     
   13445 N4         547.2565  -631.9248  -408.9046 N4            1 RES     
   13446 C1         548.3427  -631.8183  -409.7264 C1            1 RES     
   13447 C1         548.8360  -630.5639  -410.1054 C1            1 RES     
   13448 C1         548.1917  -629.4297  -409.6276 C1            1 RES     
   13449 N4         548.5669  -628.1659  -409.9435 N4            1 RES     
   13450 S2         547.4619  -627.2558  -409.1199 S2            1 RES     
   13451 N4         546.5189  -628.3792  -408.3597 N4            1 RES     
   13452 C1         547.0740  -629.5541  -408.7584 C1            1 RES     
   13453 C1         546.6079  -630.8357  -408.3939 C1            1 RES     
   13454 H5         548.8338  -632.7137  -410.0849 H5            1 RES     
   13455 C0         541.4299  -632.9456  -406.7792 C0            1 RES     
   13456 C0         540.1428  -633.5823  -406.2455 C0            1 RES     
   13457 C0         538.9294  -633.5411  -407.1795 C0            1 RES     
   13458 C0         538.4187  -632.1402  -407.5521 C0            1 RES     
   13459 C0         538.2899  -631.1923  -406.3420 C0            1 RES     
   13460 C0         537.5137  -629.9160  -406.6884 C0            1 RES     
   13461 C0         535.9998  -630.1802  -406.6831 C0            1 RES     
   13462 C0         535.2085  -628.9364  -407.0895 C0            1 RES     
   13463 C0         533.7103  -629.1595  -406.8618 C0            1 RES     
   13464 C0         532.7596  -628.1227  -407.4930 C0            1 RES     
   13465 C0         532.9276  -626.6421  -407.0972 C0            1 RES     
   13466 C0         534.0611  -625.9197  -407.8593 C0            1 RES     
   13467 C0         534.2144  -624.4192  -407.5401 C0            1 RES     
   13468 C0         533.2519  -623.4369  -408.2501 C0            1 RES     
   13469 C0         531.7580  -623.4924  -407.8976 C0            1 RES     
   13470 C0         531.4937  -623.3104  -406.4043 C0            1 RES     
   13471 H6         541.1974  -631.9039  -407.0863 H6            1 RES     
   13472 H6         541.7658  -633.4933  -407.6866 H6            1 RES     
   13473 H6         540.3402  -634.6372  -406.0621 H6            1 RES     
   13474 H6         539.8449  -633.1070  -405.2927 H6            1 RES     
   13475 H6         539.1328  -634.1145  -408.1098 H6            1 RES     
   13476 H6         538.1083  -634.0617  -406.6373 H6            1 RES     
   13477 H6         539.0993  -631.6652  -408.2917 H6            1 RES     
   13478 H6         537.4396  -632.2940  -408.0510 H6            1 RES     
   13479 H6         537.8002  -631.6889  -405.4758 H6            1 RES     
   13480 H6         539.3184  -630.9064  -406.0340 H6            1 RES     
   13481 H6         537.8688  -629.5068  -407.6602 H6            1 RES     
   13482 H6         537.7119  -629.1562  -405.9008 H6            1 RES     
   13483 H6         535.7305  -631.0041  -407.3760 H6            1 RES     
   13484 H6         535.7133  -630.4816  -405.6502 H6            1 RES     
   13485 H6         535.5361  -628.0888  -406.4540 H6            1 RES     
   13486 H6         535.4162  -628.7280  -408.1618 H6            1 RES     
   13487 H6         533.4206  -630.1404  -407.2998 H6            1 RES     
   13488 H6         533.5312  -629.2137  -405.7645 H6            1 RES     
   13489 H6         532.7776  -628.2049  -408.6012 H6            1 RES     
   13490 H6         531.7447  -628.4366  -407.1606 H6            1 RES     
   13491 H6         533.0405  -626.5444  -405.9958 H6            1 RES     
   13492 H6         531.9783  -626.1688  -407.3757 H6            1 RES     
   13493 H6         535.0180  -626.3750  -407.5683 H6            1 RES     
   13494 H6         533.9529  -626.0517  -408.9578 H6            1 RES     
   13495 H6         535.2209  -624.1324  -407.9198 H6            1 RES     
   13496 H6         534.2339  -624.2588  -406.4415 H6            1 RES     
   13497 H6         533.6065  -622.4118  -408.0038 H6            1 RES     
   13498 H6         533.3547  -623.5659  -409.3498 H6            1 RES     
   13499 H6         531.2499  -622.6690  -408.4447 H6            1 RES     
   13500 H6         531.2967  -624.4247  -408.2662 H6            1 RES     
   13501 H6         531.9131  -622.3432  -406.0552 H6            1 RES     
   13502 H6         530.3989  -623.3121  -406.2203 H6            1 RES     
   13503 H6         531.9443  -624.1368  -405.8178 H6            1 RES     
   13504 C0         543.1419  -634.2991  -405.2925 C0            1 RES     
   13505 C0         542.4019  -634.9772  -404.1134 C0            1 RES     
   13506 C0         542.7870  -636.4320  -403.7674 C0            1 RES     
   13507 C0         542.2308  -637.5576  -404.6742 C0            1 RES     
   13508 C0         540.7095  -637.4397  -404.9028 C0            1 RES     
   13509 C0         540.0252  -638.7046  -405.4410 C0            1 RES     
   13510 C0         539.7565  -639.7218  -404.3197 C0            1 RES     
   13511 C0         538.9875  -640.9462  -404.8375 C0            1 RES     
   13512 C0         538.5697  -641.8504  -403.6703 C0            1 RES     
   13513 C0         538.0295  -643.2507  -404.0327 C0            1 RES     
   13514 C0         536.7312  -643.3592  -404.8606 C0            1 RES     
   13515 C0         536.9238  -643.1351  -406.3744 C0            1 RES     
   13516 C0         535.6561  -643.3364  -407.2319 C0            1 RES     
   13517 C0         535.2677  -644.7887  -407.6059 C0            1 RES     
   13518 C0         534.8015  -645.7366  -406.4903 C0            1 RES     
   13519 C0         533.6024  -645.1957  -405.7140 C0            1 RES     
   13520 H6         543.1523  -634.9559  -406.1892 H6            1 RES     
   13521 H6         544.1966  -634.2018  -404.9500 H6            1 RES     
   13522 H6         542.6683  -634.3831  -403.2149 H6            1 RES     
   13523 H6         541.3090  -634.9408  -404.2134 H6            1 RES     
   13524 H6         543.8886  -636.5298  -403.6607 H6            1 RES     
   13525 H6         542.3436  -636.6240  -402.7645 H6            1 RES     
   13526 H6         542.7430  -637.5783  -405.6606 H6            1 RES     
   13527 H6         542.4603  -638.5106  -404.1521 H6            1 RES     
   13528 H6         540.1793  -637.1266  -403.9764 H6            1 RES     
   13529 H6         540.5770  -636.6583  -405.6627 H6            1 RES     
   13530 H6         540.6082  -639.1412  -406.2814 H6            1 RES     
   13531 H6         539.0302  -638.4007  -405.8329 H6            1 RES     
   13532 H6         540.7083  -640.0521  -403.8535 H6            1 RES     
   13533 H6         539.1366  -639.2191  -403.5428 H6            1 RES     
   13534 H6         538.0739  -640.5857  -405.3484 H6            1 RES     
   13535 H6         539.6374  -641.5006  -405.5479 H6            1 RES     
   13536 H6         539.4665  -642.0318  -403.0375 H6            1 RES     
   13537 H6         537.8215  -641.3101  -403.0480 H6            1 RES     
   13538 H6         538.8246  -643.8573  -404.5173 H6            1 RES     
   13539 H6         537.8122  -643.7258  -403.0497 H6            1 RES     
   13540 H6         535.9467  -642.6906  -404.4444 H6            1 RES     
   13541 H6         536.3932  -644.3926  -404.7133 H6            1 RES     
   13542 H6         537.2162  -642.0866  -406.5263 H6            1 RES     
   13543 H6         537.7406  -643.7738  -406.7746 H6            1 RES     
   13544 H6         535.8788  -642.8576  -408.2118 H6            1 RES     
   13545 H6         534.8001  -642.7793  -406.7957 H6            1 RES     
   13546 H6         534.4330  -644.7162  -408.3379 H6            1 RES     
   13547 H6         536.1247  -645.2645  -408.1311 H6            1 RES     
   13548 H6         534.5031  -646.6970  -406.9646 H6            1 RES     
   13549 H6         535.6307  -645.9862  -405.8057 H6            1 RES     
   13550 H6         532.7541  -645.0016  -406.4041 H6            1 RES     
   13551 H6         533.2830  -645.9445  -404.9591 H6            1 RES     
   13552 H6         533.8646  -644.2578  -405.1833 H6            1 RES     
   13553 C0         552.1219  -631.5039  -414.1569 C0            1 RES     
   13554 C1         551.4290  -630.8648  -412.9355 C1            1 RES     
   13555 C1         552.2252  -629.8205  -412.2584 C1            1 RES     
   13556 S2         551.8173  -629.9554  -410.5111 S2            1 RES     
   13557 C1         550.1869  -630.4291  -411.1286 C1            1 RES     
   13558 C1         550.2483  -631.0587  -412.3577 C1            1 RES     
   13559 C1         553.5396  -630.1308  -412.8007 C1            1 RES     
   13560 C1         553.5309  -631.0046  -413.8491 C1            1 RES     
   13561 C1         554.8112  -631.2112  -414.3937 C1            1 RES     
   13562 C1         555.7871  -630.4199  -413.7417 C1            1 RES     
   13563 S2         555.0463  -629.5000  -412.5213 S2            1 RES     
   13564 H3         549.4671  -631.7161  -412.7024 H3            1 RES     
   13565 H3         555.0180  -631.8789  -415.2208 H3            1 RES     
   13566 N4         557.8311  -631.4295  -414.6742 N4            1 RES     
   13567 C1         559.1750  -631.4901  -414.9124 C1            1 RES     
   13568 C1         560.0229  -630.4507  -414.5108 C1            1 RES     
   13569 C1         559.4635  -629.3544  -413.8666 C1            1 RES     
   13570 N4         560.1818  -628.2822  -413.4519 N4            1 RES     
   13571 S2         559.0188  -627.3174  -412.7852 S2            1 RES     
   13572 N4         557.6290  -628.1892  -412.9796 N4            1 RES     
   13573 C1         558.0663  -629.3122  -413.6083 C1            1 RES     
   13574 C1         557.2434  -630.3812  -414.0236 C1            1 RES     
   13575 H5         559.5927  -632.3547  -415.4119 H5            1 RES     
   13576 C0         551.6260  -630.8297  -415.4774 C0            1 RES     
   13577 C0         550.1445  -631.0793  -415.7771 C0            1 RES     
   13578 C0         549.5598  -630.3250  -416.9754 C0            1 RES     
   13579 C0         549.5732  -628.7915  -416.8723 C0            1 RES     
   13580 C0         549.0689  -628.2636  -415.5135 C0            1 RES     
   13581 C0         548.8182  -626.7510  -415.5388 C0            1 RES     
   13582 C0         547.4676  -626.4333  -416.1996 C0            1 RES     
   13583 C0         547.2263  -624.9262  -416.2940 C0            1 RES     
   13584 C0         545.7908  -624.6433  -416.7476 C0            1 RES     
   13585 C0         545.4801  -623.1947  -417.1744 C0            1 RES     
   13586 C0         545.7231  -622.0649  -416.1539 C0            1 RES     
   13587 C0         547.1989  -621.6163  -416.0626 C0            1 RES     
   13588 C0         547.4696  -620.4410  -415.1023 C0            1 RES     
   13589 C0         547.1759  -619.0130  -415.6219 C0            1 RES     
   13590 C0         545.7171  -618.6204  -415.8991 C0            1 RES     
   13591 C0         544.8122  -618.8029  -414.6822 C0            1 RES     
   13592 H6         551.7765  -629.7344  -415.3719 H6            1 RES     
   13593 H6         552.2409  -631.1689  -416.3394 H6            1 RES     
   13594 H6         550.0206  -632.1370  -416.0035 H6            1 RES     
   13595 H6         549.5263  -630.8313  -414.8946 H6            1 RES     
   13596 H6         550.0672  -630.6317  -417.9156 H6            1 RES     
   13597 H6         548.4960  -630.6446  -417.0484 H6            1 RES     
   13598 H6         550.6022  -628.4027  -417.0332 H6            1 RES     
   13599 H6         548.9433  -628.4231  -417.7080 H6            1 RES     
   13600 H6         548.1387  -628.7784  -415.1873 H6            1 RES     
   13601 H6         549.8582  -628.4772  -414.7613 H6            1 RES     
   13602 H6         549.6665  -626.2331  -416.0388 H6            1 RES     
   13603 H6         548.7593  -626.3842  -414.4905 H6            1 RES     
   13604 H6         547.4079  -626.8586  -417.2228 H6            1 RES     
   13605 H6         546.6697  -626.8989  -415.5781 H6            1 RES     
   13606 H6         547.3680  -624.4842  -415.2870 H6            1 RES     
   13607 H6         547.9574  -624.5023  -417.0167 H6            1 RES     
   13608 H6         545.5612  -625.2750  -417.6342 H6            1 RES     
   13609 H6         545.1023  -624.9489  -415.9280 H6            1 RES     
   13610 H6         546.0094  -622.9476  -418.1200 H6            1 RES     
   13611 H6         544.3909  -623.1993  -417.4037 H6            1 RES     
   13612 H6         545.3122  -622.3441  -415.1596 H6            1 RES     
   13613 H6         545.1353  -621.2183  -416.5288 H6            1 RES     
   13614 H6         547.7906  -622.4534  -415.6668 H6            1 RES     
   13615 H6         547.6056  -621.3700  -417.0674 H6            1 RES     
   13616 H6         548.5690  -620.4433  -414.9267 H6            1 RES     
   13617 H6         546.9922  -620.6299  -414.1177 H6            1 RES     
   13618 H6         547.5614  -618.3096  -414.8513 H6            1 RES     
   13619 H6         547.7646  -618.8408  -416.5494 H6            1 RES     
   13620 H6         545.7037  -617.5466  -416.1859 H6            1 RES     
   13621 H6         545.3167  -619.1670  -416.7703 H6            1 RES     
   13622 H6         545.1928  -618.2045  -413.8276 H6            1 RES     
   13623 H6         543.7862  -618.4589  -414.9303 H6            1 RES     
   13624 H6         544.7569  -619.8699  -414.3850 H6            1 RES     
   13625 C0         552.1180  -633.0879  -414.1999 C0            1 RES     
   13626 C0         550.7885  -633.7637  -413.7836 C0            1 RES     
   13627 C0         550.6697  -635.2910  -413.9774 C0            1 RES     
   13628 C0         550.4078  -635.8152  -415.4112 C0            1 RES     
   13629 C0         549.2371  -635.0884  -416.1052 C0            1 RES     
   13630 C0         548.6621  -635.7973  -417.3400 C0            1 RES     
   13631 C0         547.6979  -636.9277  -416.9442 C0            1 RES     
   13632 C0         547.0484  -637.5759  -418.1758 C0            1 RES     
   13633 C0         545.9566  -638.5656  -417.7481 C0            1 RES     
   13634 C0         545.3947  -639.4984  -418.8427 C0            1 RES     
   13635 C0         544.6574  -638.8766  -420.0479 C0            1 RES     
   13636 C0         545.5897  -638.3033  -421.1347 C0            1 RES     
   13637 C0         544.8747  -637.7658  -422.3928 C0            1 RES     
   13638 C0         544.4383  -638.7966  -423.4637 C0            1 RES     
   13639 C0         543.3211  -639.7920  -423.1150 C0            1 RES     
   13640 C0         542.0282  -639.1051  -422.6795 C0            1 RES     
   13641 H6         552.4278  -633.4078  -415.2183 H6            1 RES     
   13642 H6         552.8765  -633.4877  -413.4901 H6            1 RES     
   13643 H6         550.7028  -633.6008  -412.6894 H6            1 RES     
   13644 H6         549.9073  -633.3031  -414.2497 H6            1 RES     
   13645 H6         551.5432  -635.8110  -413.5289 H6            1 RES     
   13646 H6         549.7732  -635.5940  -413.3913 H6            1 RES     
   13647 H6         551.3140  -635.7301  -416.0493 H6            1 RES     
   13648 H6         550.1693  -636.8944  -415.3020 H6            1 RES     
   13649 H6         548.4010  -634.8910  -415.3985 H6            1 RES     
   13650 H6         549.6390  -634.1261  -416.4490 H6            1 RES     
   13651 H6         549.4782  -636.1483  -418.0089 H6            1 RES     
   13652 H6         548.0564  -635.0503  -417.8977 H6            1 RES     
   13653 H6         548.2259  -637.7042  -416.3520 H6            1 RES     
   13654 H6         546.8934  -636.4861  -416.3131 H6            1 RES     
   13655 H6         546.5804  -636.7736  -418.7782 H6            1 RES     
   13656 H6         547.8368  -638.0937  -418.7630 H6            1 RES     
   13657 H6         546.3869  -639.2395  -416.9747 H6            1 RES     
   13658 H6         545.1234  -637.9985  -417.2758 H6            1 RES     
   13659 H6         546.1893  -640.1818  -419.2123 H6            1 RES     
   13660 H6         544.6461  -640.1282  -418.3113 H6            1 RES     
   13661 H6         543.9166  -638.1222  -419.7045 H6            1 RES     
   13662 H6         544.0963  -639.7093  -420.4903 H6            1 RES     
   13663 H6         546.1168  -637.4393  -420.7062 H6            1 RES     
   13664 H6         546.3563  -639.0477  -421.4402 H6            1 RES     
   13665 H6         545.6271  -637.1357  -422.9181 H6            1 RES     
   13666 H6         544.0415  -637.0897  -422.1065 H6            1 RES     
   13667 H6         544.0873  -638.2123  -424.3431 H6            1 RES     
   13668 H6         545.3306  -639.3750  -423.7885 H6            1 RES     
   13669 H6         543.1053  -640.3917  -424.0262 H6            1 RES     
   13670 H6         543.6553  -640.5167  -422.3525 H6            1 RES     
   13671 H6         541.6693  -638.4208  -423.4774 H6            1 RES     
   13672 H6         541.2480  -639.8721  -422.4910 H6            1 RES     
   13673 H6         542.1816  -638.5287  -421.7445 H6            1 RES     
   13674 C0         564.5912  -631.2877  -417.0653 C0            1 RES     
   13675 C1         563.5382  -630.8299  -416.0348 C1            1 RES     
   13676 C1         564.0997  -630.3975  -414.7384 C1            1 RES     
   13677 S2         562.8887  -630.8822  -413.4988 S2            1 RES     
   13678 C1         561.6953  -630.5236  -414.8070 C1            1 RES     
   13679 C1         562.2130  -630.7402  -416.0703 C1            1 RES     
   13680 C1         565.4242  -630.9919  -414.8398 C1            1 RES     
   13681 C1         565.7480  -631.4517  -416.0833 C1            1 RES     
   13682 C1         567.0647  -631.9412  -416.1549 C1            1 RES     
   13683 C1         567.7429  -631.7906  -414.9216 C1            1 RES     
   13684 S2         566.7039  -631.0670  -413.7895 S2            1 RES     
   13685 H3         561.5807  -630.9342  -416.9211 H3            1 RES     
   13686 H3         567.5073  -632.3630  -417.0487 H3            1 RES     
   13687 N4         569.7428  -633.1540  -415.3781 N4            1 RES     
   13688 C1         570.9958  -633.6280  -415.1106 C1            1 RES     
   13689 C1         571.7323  -633.1378  -414.0253 C1            1 RES     
   13690 C1         571.1586  -632.1549  -413.2286 C1            1 RES     
   13691 N4         571.7842  -631.5922  -412.1658 N4            1 RES     
   13692 S2         570.6573  -630.5118  -411.6269 S2            1 RES     
   13693 N4         569.3903  -630.7172  -412.6670 N4            1 RES     
   13694 C1         569.8468  -631.6836  -413.5068 C1            1 RES     
   13695 C1         569.1324  -632.2051  -414.6069 C1            1 RES     
   13696 H5         571.4241  -634.3970  -415.7404 H5            1 RES     
   13697 C0         564.9290  -630.1225  -418.0513 C0            1 RES     
   13698 C0         563.7549  -629.7138  -418.9465 C0            1 RES     
   13699 C0         563.9738  -628.4814  -419.8296 C0            1 RES     
   13700 C0         564.2345  -627.1622  -419.0851 C0            1 RES     
   13701 C0         563.2557  -626.9119  -417.9195 C0            1 RES     
   13702 C0         563.3475  -625.4770  -417.3865 C0            1 RES     
   13703 C0         562.5686  -624.5088  -418.2906 C0            1 RES     
   13704 C0         562.7004  -623.0618  -417.8138 C0            1 RES     
   13705 C0         561.7428  -622.1544  -418.5923 C0            1 RES     
   13706 C0         561.9628  -620.6359  -418.4408 C0            1 RES     
   13707 C0         561.9028  -620.0272  -417.0256 C0            1 RES     
   13708 C0         563.2105  -620.1967  -416.2200 C0            1 RES     
   13709 C0         563.2120  -619.5402  -414.8251 C0            1 RES     
   13710 C0         563.4868  -618.0188  -414.7530 C0            1 RES     
   13711 C0         562.4464  -617.0579  -415.3472 C0            1 RES     
   13712 C0         561.0541  -617.2469  -414.7483 C0            1 RES     
   13713 H6         565.2207  -629.2411  -417.4418 H6            1 RES     
   13714 H6         565.8018  -630.3928  -418.6850 H6            1 RES     
   13715 H6         563.5511  -630.5361  -419.6304 H6            1 RES     
   13716 H6         562.8518  -629.5289  -418.3360 H6            1 RES     
   13717 H6         564.7982  -628.6608  -420.5533 H6            1 RES     
   13718 H6         563.0354  -628.3538  -420.4146 H6            1 RES     
   13719 H6         565.2684  -627.1471  -418.6768 H6            1 RES     
   13720 H6         564.1663  -626.3608  -419.8493 H6            1 RES     
   13721 H6         562.2029  -627.1231  -418.2087 H6            1 RES     
   13722 H6         563.5305  -627.6102  -417.1001 H6            1 RES     
   13723 H6         564.4139  -625.1821  -417.2697 H6            1 RES     
   13724 H6         562.8673  -625.4402  -416.3840 H6            1 RES     
   13725 H6         562.9238  -624.5614  -419.3406 H6            1 RES     
   13726 H6         561.4974  -624.8117  -418.2663 H6            1 RES     
   13727 H6         562.4263  -623.0197  -416.7401 H6            1 RES     
   13728 H6         563.7546  -622.7416  -417.9641 H6            1 RES     
   13729 H6         561.8471  -622.3674  -419.6793 H6            1 RES     
   13730 H6         560.7019  -622.4142  -418.2958 H6            1 RES     
   13731 H6         562.9162  -620.3325  -418.9247 H6            1 RES     
   13732 H6         561.1386  -620.1748  -419.0300 H6            1 RES     
   13733 H6         561.0212  -620.4165  -416.4719 H6            1 RES     
   13734 H6         561.7435  -618.9546  -417.1891 H6            1 RES     
   13735 H6         563.3651  -621.2685  -416.0337 H6            1 RES     
   13736 H6         564.0872  -619.8318  -416.7979 H6            1 RES     
   13737 H6         564.0692  -619.9952  -414.2796 H6            1 RES     
   13738 H6         562.2957  -619.8226  -414.2651 H6            1 RES     
   13739 H6         563.5856  -617.7651  -413.6744 H6            1 RES     
   13740 H6         564.4680  -617.8085  -415.2322 H6            1 RES     
   13741 H6         562.7811  -616.0202  -415.1313 H6            1 RES     
   13742 H6         562.4136  -617.1379  -416.4474 H6            1 RES     
   13743 H6         561.0880  -617.1090  -413.6469 H6            1 RES     
   13744 H6         560.3609  -616.4955  -415.1812 H6            1 RES     
   13745 H6         560.6570  -618.2566  -414.9779 H6            1 RES     
   13746 C0         564.3001  -632.6726  -417.7782 C0            1 RES     
   13747 C0         562.8309  -632.9067  -418.2073 C0            1 RES     
   13748 C0         562.5245  -634.1552  -419.0627 C0            1 RES     
   13749 C0         562.8836  -634.1004  -420.5683 C0            1 RES     
   13750 C0         562.3542  -632.8268  -421.2598 C0            1 RES     
   13751 C0         562.3140  -632.8795  -422.7939 C0            1 RES     
   13752 C0         561.0790  -633.6423  -423.3006 C0            1 RES     
   13753 C0         560.9854  -633.6152  -424.8333 C0            1 RES     
   13754 C0         559.6532  -634.2166  -425.3002 C0            1 RES     
   13755 C0         559.5136  -634.5131  -426.8090 C0            1 RES     
   13756 C0         559.5794  -633.3399  -427.8100 C0            1 RES     
   13757 C0         561.0090  -632.8540  -428.1245 C0            1 RES     
   13758 C0         561.1028  -631.7479  -429.1971 C0            1 RES     
   13759 C0         561.0403  -632.1836  -430.6825 C0            1 RES     
   13760 C0         559.7230  -632.7576  -431.2264 C0            1 RES     
   13761 C0         558.5413  -631.8072  -431.0448 C0            1 RES     
   13762 H6         564.9900  -632.7684  -418.6444 H6            1 RES     
   13763 H6         564.5325  -633.5116  -417.0846 H6            1 RES     
   13764 H6         562.2660  -633.0536  -417.2635 H6            1 RES     
   13765 H6         562.3886  -632.0410  -418.7180 H6            1 RES     
   13766 H6         562.9569  -635.0654  -418.5947 H6            1 RES     
   13767 H6         561.4174  -634.2681  -419.0341 H6            1 RES     
   13768 H6         563.9813  -634.1682  -420.7293 H6            1 RES     
   13769 H6         562.4170  -634.9986  -421.0255 H6            1 RES     
   13770 H6         561.3387  -632.5553  -420.8959 H6            1 RES     
   13771 H6         563.0501  -632.0224  -420.9869 H6            1 RES     
   13772 H6         563.2645  -633.2904  -423.1993 H6            1 RES     
   13773 H6         562.2074  -631.8344  -423.1577 H6            1 RES     
   13774 H6         561.0970  -634.6953  -422.9491 H6            1 RES     
   13775 H6         560.1741  -633.1444  -422.8835 H6            1 RES     
   13776 H6         561.0287  -632.5584  -425.1602 H6            1 RES     
   13777 H6         561.8406  -634.1874  -425.2524 H6            1 RES     
   13778 H6         559.5207  -635.1966  -424.7907 H6            1 RES     
   13779 H6         558.8242  -633.5506  -424.9714 H6            1 RES     
   13780 H6         560.2378  -635.2980  -427.1165 H6            1 RES     
   13781 H6         558.4958  -634.9524  -426.9112 H6            1 RES     
   13782 H6         558.9276  -632.5043  -427.4743 H6            1 RES     
   13783 H6         559.1483  -633.7403  -428.7362 H6            1 RES     
   13784 H6         561.4239  -632.4094  -427.2089 H6            1 RES     
   13785 H6         561.6668  -633.7014  -428.4152 H6            1 RES     
   13786 H6         562.1210  -631.3114  -429.0884 H6            1 RES     
   13787 H6         560.3839  -630.9308  -428.9759 H6            1 RES     
   13788 H6         561.2739  -631.2806  -431.2889 H6            1 RES     
   13789 H6         561.8473  -632.9247  -430.8724 H6            1 RES     
   13790 H6         559.8572  -632.9402  -432.3150 H6            1 RES     
   13791 H6         559.5037  -633.7442  -430.7826 H6            1 RES     
   13792 H6         558.7485  -630.8369  -431.5440 H6            1 RES     
   13793 H6         557.6336  -632.2552  -431.5007 H6            1 RES     
   13794 H6         558.3378  -631.6293  -429.9691 H6            1 RES     
   13795 C0         576.7033  -634.7926  -414.8291 C0            1 RES     
   13796 C1         575.3978  -634.3073  -414.1653 C1            1 RES     
   13797 C1         575.3431  -634.5121  -412.7032 C1            1 RES     
   13798 S2         573.6190  -634.8630  -412.3262 S2            1 RES     
   13799 C1         573.2921  -633.7255  -413.6912 C1            1 RES     
   13800 C1         574.2973  -633.7339  -414.6400 C1            1 RES     
   13801 C1         576.4104  -635.4907  -412.5573 C1            1 RES     
   13802 C1         577.1927  -635.6489  -413.6643 C1            1 RES     
   13803 C1         578.2593  -636.5409  -413.4519 C1            1 RES     
   13804 C1         578.2798  -637.0185  -412.1196 C1            1 RES     
   13805 S2         576.9897  -636.3334  -411.2532 S2            1 RES     
   13806 H3         574.1248  -633.4239  -415.6576 H3            1 RES     
   13807 H3         578.9836  -636.8118  -414.2100 H3            1 RES     
   13808 N4         579.9455  -638.8184  -412.3492 N4            1 RES     
   13809 C1         580.7986  -639.7732  -411.8728 C1            1 RES     
   13810 C1         581.0059  -639.9286  -410.4968 C1            1 RES     
   13811 C1         580.3250  -639.0856  -409.6275 C1            1 RES     
   13812 N4         580.4622  -639.1300  -408.2797 N4            1 RES     
   13813 S2         579.4497  -637.9230  -407.7840 S2            1 RES     
   13814 N4         578.8218  -637.3357  -409.1947 N4            1 RES     
   13815 C1         579.4262  -638.1086  -410.1354 C1            1 RES     
   13816 C1         579.2388  -637.9845  -411.5289 C1            1 RES     
   13817 H5         581.3168  -640.4234  -412.5658 H5            1 RES     
   13818 C0         577.6908  -633.5966  -415.0246 C0            1 RES     
   13819 C0         577.1928  -632.5434  -416.0195 C0            1 RES     
   13820 C0         578.0424  -631.2749  -416.1445 C0            1 RES     
   13821 C0         578.1665  -630.4242  -414.8704 C0            1 RES     
   13822 C0         576.8196  -630.1889  -414.1563 C0            1 RES     
   13823 C0         576.9227  -629.1120  -413.0695 C0            1 RES     
   13824 C0         576.8763  -627.7063  -413.6888 C0            1 RES     
   13825 C0         577.0429  -626.6169  -412.6287 C0            1 RES     
   13826 C0         576.7717  -625.2367  -413.2352 C0            1 RES     
   13827 C0         577.1832  -624.0205  -412.3817 C0            1 RES     
   13828 C0         576.5737  -623.8776  -410.9726 C0            1 RES     
   13829 C0         577.2756  -624.7418  -409.9012 C0            1 RES     
   13830 C0         576.7377  -624.5732  -408.4662 C0            1 RES     
   13831 C0         577.2348  -623.3511  -407.6571 C0            1 RES     
   13832 C0         576.8149  -621.9476  -408.1185 C0            1 RES     
   13833 C0         575.2992  -621.7826  -408.2117 C0            1 RES     
   13834 H6         577.8208  -633.1040  -414.0377 H6            1 RES     
   13835 H6         578.6887  -633.9673  -415.3457 H6            1 RES     
   13836 H6         577.1851  -632.9940  -417.0106 H6            1 RES     
   13837 H6         576.1634  -632.2302  -415.7650 H6            1 RES     
   13838 H6         579.0595  -631.5212  -416.5190 H6            1 RES     
   13839 H6         577.5432  -630.6474  -416.9166 H6            1 RES     
   13840 H6         578.8597  -630.9085  -414.1488 H6            1 RES     
   13841 H6         578.6294  -629.4665  -415.1857 H6            1 RES     
   13842 H6         576.0151  -629.9059  -414.8699 H6            1 RES     
   13843 H6         576.5273  -631.1472  -413.6759 H6            1 RES     
   13844 H6         577.8376  -629.2753  -412.4578 H6            1 RES     
   13845 H6         576.0393  -629.1993  -412.3995 H6            1 RES     
   13846 H6         577.6723  -627.5733  -414.4505 H6            1 RES     
   13847 H6         575.8883  -627.5900  -414.1888 H6            1 RES     
   13848 H6         576.3031  -626.7957  -411.8223 H6            1 RES     
   13849 H6         578.0800  -626.6747  -412.2317 H6            1 RES     
   13850 H6         577.3392  -625.1429  -414.1875 H6            1 RES     
   13851 H6         575.6877  -625.1734  -413.4805 H6            1 RES     
   13852 H6         578.2901  -623.9581  -412.3046 H6            1 RES     
   13853 H6         576.8487  -623.1389  -412.9732 H6            1 RES     
   13854 H6         575.4781  -624.0626  -411.0024 H6            1 RES     
   13855 H6         576.7242  -622.8239  -410.7085 H6            1 RES     
   13856 H6         577.1103  -625.7998  -410.1479 H6            1 RES     
   13857 H6         578.3737  -624.5695  -409.9038 H6            1 RES     
   13858 H6         577.1225  -625.4487  -407.8961 H6            1 RES     
   13859 H6         575.6302  -624.6530  -408.4577 H6            1 RES     
   13860 H6         576.8531  -623.4806  -406.6203 H6            1 RES     
   13861 H6         578.3452  -623.3825  -407.6058 H6            1 RES     
   13862 H6         577.2002  -621.2169  -407.3749 H6            1 RES     
   13863 H6         577.2972  -621.6824  -409.0751 H6            1 RES     
   13864 H6         574.8285  -621.9974  -407.2291 H6            1 RES     
   13865 H6         575.0588  -620.7384  -408.5023 H6            1 RES     
   13866 H6         574.8723  -622.4618  -408.9774 H6            1 RES     
   13867 C0         576.5253  -635.6997  -416.1161 C0            1 RES     
   13868 C0         575.4265  -635.2437  -417.1073 C0            1 RES     
   13869 C0         575.3300  -635.9827  -418.4597 C0            1 RES     
   13870 C0         576.3680  -635.6222  -419.5512 C0            1 RES     
   13871 C0         576.4932  -634.1004  -419.7731 C0            1 RES     
   13872 C0         577.1819  -633.6807  -421.0798 C0            1 RES     
   13873 C0         576.2179  -633.7544  -422.2752 C0            1 RES     
   13874 C0         576.8758  -633.2450  -423.5662 C0            1 RES     
   13875 C0         575.8410  -633.1524  -424.6953 C0            1 RES     
   13876 C0         576.3851  -632.9191  -426.1213 C0            1 RES     
   13877 C0         577.1483  -631.6123  -426.4251 C0            1 RES     
   13878 C0         578.6177  -631.6124  -425.9562 C0            1 RES     
   13879 C0         579.4262  -630.3539  -426.3376 C0            1 RES     
   13880 C0         579.9980  -630.2787  -427.7755 C0            1 RES     
   13881 C0         579.0181  -630.1446  -428.9512 C0            1 RES     
   13882 C0         578.1041  -628.9272  -428.8267 C0            1 RES     
   13883 H6         577.5116  -635.7811  -416.6220 H6            1 RES     
   13884 H6         576.2294  -636.7298  -415.8154 H6            1 RES     
   13885 H6         574.4629  -635.4451  -416.5952 H6            1 RES     
   13886 H6         575.4604  -634.1673  -417.3220 H6            1 RES     
   13887 H6         575.2994  -637.0823  -418.3030 H6            1 RES     
   13888 H6         574.3462  -635.6866  -418.8883 H6            1 RES     
   13889 H6         577.3720  -636.0354  -419.3127 H6            1 RES     
   13890 H6         576.0122  -636.1106  -420.4830 H6            1 RES     
   13891 H6         575.5022  -633.5971  -419.7268 H6            1 RES     
   13892 H6         577.1153  -633.7244  -418.9502 H6            1 RES     
   13893 H6         578.1098  -634.2713  -421.2437 H6            1 RES     
   13894 H6         577.4679  -632.6116  -420.9738 H6            1 RES     
   13895 H6         575.8603  -634.7944  -422.4271 H6            1 RES     
   13896 H6         575.3405  -633.1071  -422.0479 H6            1 RES     
   13897 H6         577.2749  -632.2312  -423.3699 H6            1 RES     
   13898 H6         577.6972  -633.9392  -423.8450 H6            1 RES     
   13899 H6         575.2932  -634.1196  -424.7402 H6            1 RES     
   13900 H6         575.1034  -632.3583  -424.4416 H6            1 RES     
   13901 H6         576.9996  -633.7862  -426.4463 H6            1 RES     
   13902 H6         575.4767  -632.9055  -426.7647 H6            1 RES     
   13903 H6         576.5923  -630.7351  -426.0286 H6            1 RES     
   13904 H6         577.1440  -631.5358  -427.5196 H6            1 RES     
   13905 H6         578.6218  -631.6408  -424.8575 H6            1 RES     
   13906 H6         579.1552  -632.5154  -426.3183 H6            1 RES     
   13907 H6         580.3312  -630.3722  -425.6898 H6            1 RES     
   13908 H6         578.8638  -629.4350  -426.0683 H6            1 RES     
   13909 H6         580.6638  -629.3879  -427.8067 H6            1 RES     
   13910 H6         580.6357  -631.1719  -427.9543 H6            1 RES     
   13911 H6         579.6179  -630.0343  -429.8810 H6            1 RES     
   13912 H6         578.4260  -631.0665  -429.0850 H6            1 RES     
   13913 H6         578.7091  -627.9989  -428.7501 H6            1 RES     
   13914 H6         577.4574  -628.8574  -429.7264 H6            1 RES     
   13915 H6         577.4502  -629.0125  -427.9350 H6            1 RES     
   13916 C0         585.3256  -642.9684  -410.0539 C0            1 RES     
   13917 C1         583.9846  -642.2586  -409.7740 C1            1 RES     
   13918 C1         583.1989  -642.8499  -408.6714 C1            1 RES     
   13919 S2         581.4736  -642.6413  -409.1383 S2            1 RES     
   13920 C1         582.0677  -641.1155  -409.9018 C1            1 RES     
   13921 C1         583.3807  -641.2105  -410.3237 C1            1 RES     
   13922 C1         583.8527  -644.1468  -408.5787 C1            1 RES     
   13923 C1         585.0212  -644.2462  -409.2768 C1            1 RES     
   13924 C1         585.6596  -645.4859  -409.0924 C1            1 RES     
   13925 C1         584.9472  -646.3075  -408.1861 C1            1 RES     
   13926 S2         583.5613  -645.4864  -407.6477 S2            1 RES     
   13927 H3         583.7797  -640.5742  -411.0965 H3            1 RES     
   13928 H3         586.5896  -645.7664  -409.5709 H3            1 RES     
   13929 N4         586.1332  -648.4376  -408.5363 N4            1 RES     
   13930 C1         586.4502  -649.7326  -408.2381 C1            1 RES     
   13931 C1         585.9397  -650.3507  -407.0901 C1            1 RES     
   13932 C1         585.1050  -649.6135  -406.2596 C1            1 RES     
   13933 N4         584.5695  -650.0996  -405.1131 N4            1 RES     
   13934 S2         583.7003  -648.8099  -404.5575 S2            1 RES     
   13935 N4         583.9512  -647.6465  -405.7033 N4            1 RES     
   13936 C1         584.7682  -648.2729  -406.5910 C1            1 RES     
   13937 C1         585.2981  -647.6846  -407.7596 C1            1 RES     
   13938 H5         587.0988  -650.2920  -408.8998 H5            1 RES     
   13939 C0         586.4977  -642.2149  -409.3449 C0            1 RES     
   13940 C0         586.7517  -640.8101  -409.9006 C0            1 RES     
   13941 C0         587.7861  -639.9631  -409.1527 C0            1 RES     
   13942 C0         587.4489  -639.6321  -407.6901 C0            1 RES     
   13943 C0         585.9997  -639.1429  -407.4904 C0            1 RES     
   13944 C0         585.7780  -638.5493  -406.0939 C0            1 RES     
   13945 C0         586.3080  -637.1086  -406.0235 C0            1 RES     
   13946 C0         586.1559  -636.5193  -404.6207 C0            1 RES     
   13947 C0         586.4822  -635.0227  -404.6326 C0            1 RES     
   13948 C0         586.6633  -634.3500  -403.2572 C0            1 RES     
   13949 C0         585.4955  -634.4161  -402.2527 C0            1 RES     
   13950 C0         585.4161  -635.7511  -401.4787 C0            1 RES     
   13951 C0         584.3023  -635.8283  -400.4156 C0            1 RES     
   13952 C0         584.5790  -635.1686  -399.0432 C0            1 RES     
   13953 C0         584.7131  -633.6399  -398.9794 C0            1 RES     
   13954 C0         583.4918  -632.9134  -399.5392 C0            1 RES     
   13955 H6         586.2330  -642.1179  -408.2706 H6            1 RES     
   13956 H6         587.4337  -642.8121  -409.4047 H6            1 RES     
   13957 H6         587.1314  -640.9134  -410.9158 H6            1 RES     
   13958 H6         585.8094  -640.2325  -409.9320 H6            1 RES     
   13959 H6         588.7883  -640.4417  -409.1965 H6            1 RES     
   13960 H6         587.8498  -638.9993  -409.7061 H6            1 RES     
   13961 H6         587.6033  -640.5253  -407.0467 H6            1 RES     
   13962 H6         588.1825  -638.8624  -407.3735 H6            1 RES     
   13963 H6         585.7069  -638.3891  -408.2537 H6            1 RES     
   13964 H6         585.3331  -640.0240  -407.6084 H6            1 RES     
   13965 H6         586.2374  -639.2076  -405.3235 H6            1 RES     
   13966 H6         584.6841  -638.5012  -405.8991 H6            1 RES     
   13967 H6         587.3798  -637.0574  -406.3066 H6            1 RES     
   13968 H6         585.7234  -636.4980  -406.7482 H6            1 RES     
   13969 H6         585.1019  -636.6445  -404.2997 H6            1 RES     
   13970 H6         586.8431  -637.0658  -403.9383 H6            1 RES     
   13971 H6         587.4418  -634.8666  -405.1735 H6            1 RES     
   13972 H6         585.6835  -634.4989  -405.2042 H6            1 RES     
   13973 H6         587.5867  -634.7217  -402.7629 H6            1 RES     
   13974 H6         586.8313  -633.2751  -403.4926 H6            1 RES     
   13975 H6         584.5353  -634.1709  -402.7561 H6            1 RES     
   13976 H6         585.7032  -633.6182  -401.5296 H6            1 RES     
   13977 H6         585.1866  -636.5525  -402.1946 H6            1 RES     
   13978 H6         586.3915  -635.9991  -401.0065 H6            1 RES     
   13979 H6         584.1889  -636.9098  -400.1770 H6            1 RES     
   13980 H6         583.3342  -635.4970  -400.8468 H6            1 RES     
   13981 H6         583.7312  -635.4488  -398.3798 H6            1 RES     
   13982 H6         585.4994  -635.6168  -398.6089 H6            1 RES     
   13983 H6         584.8300  -633.3541  -397.9116 H6            1 RES     
   13984 H6         585.6352  -633.3001  -399.4818 H6            1 RES     
   13985 H6         582.5770  -633.2206  -398.9896 H6            1 RES     
   13986 H6         583.6280  -631.8179  -399.4219 H6            1 RES     
   13987 H6         583.3600  -633.1320  -400.6185 H6            1 RES     
   13988 C0         585.6119  -643.3255  -411.5709 C0            1 RES     
   13989 C0         585.2334  -642.2299  -412.5976 C0            1 RES     
   13990 C0         585.6535  -642.4492  -414.0672 C0            1 RES     
   13991 C0         587.1346  -642.1884  -414.4377 C0            1 RES     
   13992 C0         587.6441  -640.8247  -413.9264 C0            1 RES     
   13993 C0         588.9404  -640.3208  -414.5772 C0            1 RES     
   13994 C0         588.6719  -639.6820  -415.9497 C0            1 RES     
   13995 C0         589.9517  -639.0922  -416.5605 C0            1 RES     
   13996 C0         589.6232  -638.3002  -417.8330 C0            1 RES     
   13997 C0         590.8165  -637.8730  -418.7149 C0            1 RES     
   13998 C0         591.8698  -636.9080  -418.1301 C0            1 RES     
   13999 C0         592.9041  -637.5826  -417.2059 C0            1 RES     
   14000 C0         594.0238  -636.6539  -416.6896 C0            1 RES     
   14001 C0         595.2156  -636.3729  -417.6386 C0            1 RES     
   14002 C0         594.9645  -635.5506  -418.9119 C0            1 RES     
   14003 C0         594.3592  -634.1784  -418.6230 C0            1 RES     
   14004 H6         586.6827  -643.6086  -411.6643 H6            1 RES     
   14005 H6         585.0142  -644.2158  -411.8695 H6            1 RES     
   14006 H6         584.1241  -642.2068  -412.6114 H6            1 RES     
   14007 H6         585.5746  -641.2284  -412.3035 H6            1 RES     
   14008 H6         585.3384  -643.4553  -414.4178 H6            1 RES     
   14009 H6         585.0735  -641.7024  -414.6545 H6            1 RES     
   14010 H6         587.8000  -642.9901  -414.0503 H6            1 RES     
   14011 H6         587.1802  -642.2155  -415.5471 H6            1 RES     
   14012 H6         586.8712  -640.0321  -414.0349 H6            1 RES     
   14013 H6         587.8566  -640.9620  -412.8579 H6            1 RES     
   14014 H6         589.6985  -641.1329  -414.6262 H6            1 RES     
   14015 H6         589.3428  -639.5122  -413.9290 H6            1 RES     
   14016 H6         588.2358  -640.4253  -416.6496 H6            1 RES     
   14017 H6         587.9377  -638.8569  -415.8056 H6            1 RES     
   14018 H6         590.3971  -638.4003  -415.8199 H6            1 RES     
   14019 H6         590.6534  -639.9231  -416.7877 H6            1 RES     
   14020 H6         588.9873  -638.9412  -418.4827 H6            1 RES     
   14021 H6         589.0248  -637.4043  -417.5534 H6            1 RES     
   14022 H6         591.3294  -638.7674  -419.1296 H6            1 RES     
   14023 H6         590.3487  -637.3399  -419.5730 H6            1 RES     
   14024 H6         591.3747  -636.0470  -417.6307 H6            1 RES     
   14025 H6         592.4042  -636.5166  -419.0048 H6            1 RES     
   14026 H6         592.3768  -637.9326  -416.3074 H6            1 RES     
   14027 H6         593.3617  -638.4697  -417.6947 H6            1 RES     
   14028 H6         594.4857  -637.1912  -415.8310 H6            1 RES     
   14029 H6         593.5922  -635.7163  -416.2798 H6            1 RES     
   14030 H6         595.9742  -635.8200  -417.0414 H6            1 RES     
   14031 H6         595.6734  -637.3420  -417.9350 H6            1 RES     
   14032 H6         595.9442  -635.3985  -419.4154 H6            1 RES     
   14033 H6         594.3420  -636.1093  -419.6320 H6            1 RES     
   14034 H6         595.0215  -633.6020  -417.9427 H6            1 RES     
   14035 H6         594.2491  -633.6158  -419.5737 H6            1 RES     
   14036 H6         593.3562  -634.2776  -418.1601 H6            1 RES     
   14037 C0         588.8359  -654.7428  -406.4442 C0            1 RES     
   14038 C1         587.6918  -653.7087  -406.3991 C1            1 RES     
   14039 C1         586.3765  -654.2687  -406.0257 C1            1 RES     
   14040 S2         585.1628  -653.3172  -406.9528 S2            1 RES     
   14041 C1         586.3336  -651.9617  -406.7167 C1            1 RES     
   14042 C1         587.6413  -652.4007  -406.6272 C1            1 RES     
   14043 C1         586.6397  -655.6801  -406.2638 C1            1 RES     
   14044 C1         587.9550  -655.9890  -406.4575 C1            1 RES     
   14045 C1         588.1722  -657.3713  -406.6008 C1            1 RES     
   14046 C1         586.9689  -658.1036  -406.4615 C1            1 RES     
   14047 S2         585.6844  -657.0310  -406.1714 S2            1 RES     
   14048 H3         588.4764  -651.7569  -406.8495 H3            1 RES     
   14049 H3         589.1430  -657.8176  -406.7771 H3            1 RES     
   14050 N4         587.7375  -660.3149  -407.2272 N4            1 RES     
   14051 C1         587.6143  -661.6621  -407.4174 C1            1 RES     
   14052 C1         586.5079  -662.3596  -406.9175 C1            1 RES     
   14053 C1         585.5395  -661.6483  -406.2203 C1            1 RES     
   14054 N4         584.4381  -662.2196  -405.6744 N4            1 RES     
   14055 S2         583.6790  -660.9268  -404.9815 S2            1 RES     
   14056 N4         584.6682  -659.6536  -405.3418 N4            1 RES     
   14057 C1         585.6704  -660.2437  -406.0454 C1            1 RES     
   14058 C1         586.7974  -659.5736  -406.5680 C1            1 RES     
   14059 H5         588.3773  -662.1981  -407.9670 H5            1 RES     
   14060 C0         589.6475  -654.7139  -405.1083 C0            1 RES     
   14061 C0         590.4042  -653.4023  -404.8759 C0            1 RES     
   14062 C0         591.0974  -653.2520  -403.5182 C0            1 RES     
   14063 C0         590.1737  -653.2672  -402.2898 C0            1 RES     
   14064 C0         588.9323  -652.3649  -402.4446 C0            1 RES     
   14065 C0         588.1903  -652.1708  -401.1166 C0            1 RES     
   14066 C0         588.8910  -651.1125  -400.2503 C0            1 RES     
   14067 C0         588.2047  -650.9495  -398.8935 C0            1 RES     
   14068 C0         588.7813  -649.7434  -398.1457 C0            1 RES     
   14069 C0         588.4098  -649.6203  -396.6544 C0            1 RES     
   14070 C0         586.9164  -649.5481  -396.2776 C0            1 RES     
   14071 C0         586.2186  -650.9260  -396.2356 C0            1 RES     
   14072 C0         584.7413  -650.9006  -395.7954 C0            1 RES     
   14073 C0         584.4506  -650.8230  -394.2772 C0            1 RES     
   14074 C0         584.8325  -649.5406  -393.5232 C0            1 RES     
   14075 C0         584.1955  -648.2882  -394.1223 C0            1 RES     
   14076 H6         588.9261  -654.8479  -404.2745 H6            1 RES     
   14077 H6         590.3614  -655.5655  -405.0710 H6            1 RES     
   14078 H6         591.1946  -653.3333  -405.6216 H6            1 RES     
   14079 H6         589.7246  -652.5390  -404.9994 H6            1 RES     
   14080 H6         591.8836  -654.0277  -403.3929 H6            1 RES     
   14081 H6         591.6042  -652.2611  -403.5416 H6            1 RES     
   14082 H6         589.8245  -654.3019  -402.0820 H6            1 RES     
   14083 H6         590.8005  -652.9484  -401.4316 H6            1 RES     
   14084 H6         589.1932  -651.3675  -402.8615 H6            1 RES     
   14085 H6         588.2463  -652.8650  -403.1614 H6            1 RES     
   14086 H6         588.0873  -653.1467  -400.5924 H6            1 RES     
   14087 H6         587.1697  -651.7863  -401.3341 H6            1 RES     
   14088 H6         589.9543  -651.3753  -400.0715 H6            1 RES     
   14089 H6         588.8557  -650.1465  -400.8027 H6            1 RES     
   14090 H6         587.1242  -650.7699  -399.0659 H6            1 RES     
   14091 H6         588.3607  -651.8840  -398.3112 H6            1 RES     
   14092 H6         589.8921  -649.7966  -398.1765 H6            1 RES     
   14093 H6         588.4724  -648.8208  -398.6867 H6            1 RES     
   14094 H6         588.8919  -650.4312  -396.0670 H6            1 RES     
   14095 H6         588.8754  -648.6630  -396.3293 H6            1 RES     
   14096 H6         586.3825  -648.8328  -396.9399 H6            1 RES     
   14097 H6         586.9039  -649.1321  -395.2630 H6            1 RES     
   14098 H6         586.2083  -651.3393  -397.2538 H6            1 RES     
   14099 H6         586.7799  -651.6401  -395.5948 H6            1 RES     
   14100 H6         584.3196  -651.8846  -396.1008 H6            1 RES     
   14101 H6         584.1828  -650.1276  -396.3641 H6            1 RES     
   14102 H6         583.3528  -650.9563  -394.1573 H6            1 RES     
   14103 H6         584.9440  -651.6827  -393.7732 H6            1 RES     
   14104 H6         584.4777  -649.6452  -392.4751 H6            1 RES     
   14105 H6         585.9286  -649.4292  -393.4575 H6            1 RES     
   14106 H6         583.0895  -648.3874  -394.1323 H6            1 RES     
   14107 H6         584.4694  -647.4049  -393.5080 H6            1 RES     
   14108 H6         584.5561  -648.1155  -395.1567 H6            1 RES     
   14109 C0         589.7369  -654.7161  -407.7474 C0            1 RES     
   14110 C0         590.1168  -653.3080  -408.2676 C0            1 RES     
   14111 C0         591.1365  -653.2224  -409.4240 C0            1 RES     
   14112 C0         592.6329  -653.4237  -409.0788 C0            1 RES     
   14113 C0         593.0903  -652.5558  -407.8879 C0            1 RES     
   14114 C0         594.6097  -652.3924  -407.7383 C0            1 RES     
   14115 C0         595.1604  -651.3261  -408.6995 C0            1 RES     
   14116 C0         596.6633  -651.0926  -408.4862 C0            1 RES     
   14117 C0         597.1445  -649.8986  -409.3212 C0            1 RES     
   14118 C0         598.6712  -649.6972  -409.4331 C0            1 RES     
   14119 C0         599.4816  -649.4016  -408.1531 C0            1 RES     
   14120 C0         599.7943  -650.6471  -407.2987 C0            1 RES     
   14121 C0         600.6872  -650.3877  -406.0665 C0            1 RES     
   14122 C0         602.2164  -650.2952  -406.2970 C0            1 RES     
   14123 C0         602.7702  -649.1024  -407.0914 C0            1 RES     
   14124 C0         602.3807  -647.7545  -406.4878 C0            1 RES     
   14125 H6         590.6435  -655.3295  -407.5547 H6            1 RES     
   14126 H6         589.1944  -655.1963  -408.5926 H6            1 RES     
   14127 H6         589.1778  -652.8785  -408.6740 H6            1 RES     
   14128 H6         590.4634  -652.6346  -407.4725 H6            1 RES     
   14129 H6         590.8384  -653.8928  -410.2584 H6            1 RES     
   14130 H6         591.0659  -652.1782  -409.8030 H6            1 RES     
   14131 H6         592.8616  -654.4887  -408.8574 H6            1 RES     
   14132 H6         593.1971  -653.1377  -409.9917 H6            1 RES     
   14133 H6         592.6345  -651.5416  -407.9216 H6            1 RES     
   14134 H6         592.7348  -653.0692  -406.9848 H6            1 RES     
   14135 H6         595.1245  -653.3719  -407.8487 H6            1 RES     
   14136 H6         594.8019  -652.0159  -406.7100 H6            1 RES     
   14137 H6         594.9768  -651.6173  -409.7550 H6            1 RES     
   14138 H6         594.6232  -650.3718  -408.4962 H6            1 RES     
   14139 H6         596.8253  -650.8621  -407.4156 H6            1 RES     
   14140 H6         597.2112  -652.0157  -408.7727 H6            1 RES     
   14141 H6         596.7857  -650.0413  -410.3644 H6            1 RES     
   14142 H6         596.6727  -648.9711  -408.9259 H6            1 RES     
   14143 H6         599.1347  -650.5523  -409.9707 H6            1 RES     
   14144 H6         598.7847  -648.8030  -410.0865 H6            1 RES     
   14145 H6         598.9865  -648.6075  -407.5532 H6            1 RES     
   14146 H6         600.4337  -648.9935  -408.5149 H6            1 RES     
   14147 H6         598.8450  -651.0282  -406.8969 H6            1 RES     
   14148 H6         600.2473  -651.4537  -407.9147 H6            1 RES     
   14149 H6         600.5677  -651.2836  -405.4167 H6            1 RES     
   14150 H6         600.3042  -649.5226  -405.4849 H6            1 RES     
   14151 H6         602.6882  -650.2596  -405.2901 H6            1 RES     
   14152 H6         602.5615  -651.2309  -406.7887 H6            1 RES     
   14153 H6         603.8796  -649.1775  -407.0856 H6            1 RES     
   14154 H6         602.4725  -649.1566  -408.1529 H6            1 RES     
   14155 H6         602.7349  -647.6875  -405.4372 H6            1 RES     
   14156 H6         602.8504  -646.9375  -407.0746 H6            1 RES     
   14157 H6         601.2811  -647.6122  -406.5131 H6            1 RES     
   14158 C0         587.8247  -667.4862  -407.2000 C0            1 RES     
   14159 C1         587.0245  -666.1685  -407.1390 C1            1 RES     
   14160 C1         585.6105  -666.2928  -407.5490 C1            1 RES     
   14161 S2         585.1994  -664.7365  -408.3531 S2            1 RES     
   14162 C1         586.3532  -664.0362  -407.1521 C1            1 RES     
   14163 C1         587.3449  -664.9277  -406.7882 C1            1 RES     
   14164 C1         585.6751  -667.5654  -408.2522 C1            1 RES     
   14165 C1         586.8339  -668.2613  -408.0642 C1            1 RES     
   14166 C1         586.8195  -669.5193  -408.6934 C1            1 RES     
   14167 C1         585.5797  -669.7678  -409.3297 C1            1 RES     
   14168 S2         584.5497  -668.4370  -409.1008 S2            1 RES     
   14169 H3         588.2918  -664.5985  -406.3926 H3            1 RES     
   14170 H3         587.6483  -670.2160  -408.6755 H3            1 RES     
   14171 N4         586.1737  -671.7759  -410.6264 N4            1 RES     
   14172 C1         585.8969  -672.8649  -411.4036 C1            1 RES     
   14173 C1         584.5745  -673.2242  -411.6912 C1            1 RES     
   14174 C1         583.5502  -672.4477  -411.1642 C1            1 RES     
   14175 N4         582.2347  -672.7109  -411.3583 N4            1 RES     
   14176 S2         581.5050  -671.4959  -410.5103 S2            1 RES     
   14177 N4         582.7722  -670.6265  -409.9041 N4            1 RES     
   14178 C1         583.8521  -671.3064  -410.3725 C1            1 RES     
   14179 C1         585.1977  -670.9721  -410.1077 C1            1 RES     
   14180 H5         586.7087  -673.4551  -411.8086 H5            1 RES     
   14181 C0         587.8867  -668.1503  -405.7861 C0            1 RES     
   14182 C0         588.6790  -667.3365  -404.7580 C0            1 RES     
   14183 C0         588.6528  -667.8565  -403.3174 C0            1 RES     
   14184 C0         587.2715  -667.8944  -402.6444 C0            1 RES     
   14185 C0         586.4579  -666.5987  -402.8406 C0            1 RES     
   14186 C0         585.2254  -666.5474  -401.9297 C0            1 RES     
   14187 C0         585.6173  -666.1236  -400.5055 C0            1 RES     
   14188 C0         584.4125  -666.1285  -399.5636 C0            1 RES     
   14189 C0         584.7836  -665.4938  -398.2198 C0            1 RES     
   14190 C0         583.7764  -665.6886  -397.0688 C0            1 RES     
   14191 C0         582.3313  -665.1906  -397.2712 C0            1 RES     
   14192 C0         581.4453  -666.1652  -398.0791 C0            1 RES     
   14193 C0         579.9746  -665.7330  -398.2431 C0            1 RES     
   14194 C0         579.0149  -666.0053  -397.0598 C0            1 RES     
   14195 C0         579.2311  -665.2341  -395.7493 C0            1 RES     
   14196 C0         579.2157  -663.7190  -395.9431 C0            1 RES     
   14197 H6         586.8442  -668.2507  -405.4166 H6            1 RES     
   14198 H6         588.3146  -669.1740  -405.8580 H6            1 RES     
   14199 H6         589.7259  -667.3446  -405.0571 H6            1 RES     
   14200 H6         588.3240  -666.2896  -404.7398 H6            1 RES     
   14201 H6         589.1153  -668.8655  -403.2578 H6            1 RES     
   14202 H6         589.2910  -667.1595  -402.7290 H6            1 RES     
   14203 H6         586.6717  -668.7420  -403.0415 H6            1 RES     
   14204 H6         587.4601  -668.0944  -401.5695 H6            1 RES     
   14205 H6         587.0749  -665.6903  -402.6648 H6            1 RES     
   14206 H6         586.1158  -666.5789  -403.8975 H6            1 RES     
   14207 H6         584.6965  -667.5260  -401.9499 H6            1 RES     
   14208 H6         584.5300  -665.7711  -402.3181 H6            1 RES     
   14209 H6         586.3913  -666.7965  -400.0817 H6            1 RES     
   14210 H6         586.0392  -665.0948  -400.5633 H6            1 RES     
   14211 H6         583.6045  -665.5246  -400.0240 H6            1 RES     
   14212 H6         584.0859  -667.1822  -399.4236 H6            1 RES     
   14213 H6         585.7394  -665.9373  -397.8626 H6            1 RES     
   14214 H6         584.9573  -664.4071  -398.3866 H6            1 RES     
   14215 H6         583.7506  -666.7538  -396.7528 H6            1 RES     
   14216 H6         584.2061  -665.1087  -396.2214 H6            1 RES     
   14217 H6         582.3299  -664.1689  -397.7089 H6            1 RES     
   14218 H6         581.9165  -665.1173  -396.2587 H6            1 RES     
   14219 H6         581.8428  -666.2267  -399.1017 H6            1 RES     
   14220 H6         581.4807  -667.1894  -397.6487 H6            1 RES     
   14221 H6         579.5678  -666.3582  -399.0696 H6            1 RES     
   14222 H6         579.9186  -664.6789  -398.5877 H6            1 RES     
   14223 H6         577.9913  -665.7576  -397.4181 H6            1 RES     
   14224 H6         579.0292  -667.0931  -396.8295 H6            1 RES     
   14225 H6         578.4058  -665.5055  -395.0561 H6            1 RES     
   14226 H6         580.1601  -665.5552  -395.2474 H6            1 RES     
   14227 H6         578.2540  -663.3999  -396.3974 H6            1 RES     
   14228 H6         579.3285  -663.2197  -394.9580 H6            1 RES     
   14229 H6         580.0527  -663.3936  -396.5938 H6            1 RES     
   14230 C0         589.2246  -667.4079  -407.9383 C0            1 RES     
   14231 C0         590.0728  -666.1498  -407.6293 C0            1 RES     
   14232 C0         591.5157  -666.1060  -408.1775 C0            1 RES     
   14233 C0         592.5931  -666.9317  -407.4316 C0            1 RES     
   14234 C0         592.5844  -666.6827  -405.9089 C0            1 RES     
   14235 C0         593.8460  -667.1371  -405.1609 C0            1 RES     
   14236 C0         594.9847  -666.1134  -405.3004 C0            1 RES     
   14237 C0         596.2154  -666.5187  -404.4758 C0            1 RES     
   14238 C0         597.2591  -665.3940  -404.4816 C0            1 RES     
   14239 C0         598.6595  -665.7405  -403.9311 C0            1 RES     
   14240 C0         598.7991  -666.1521  -402.4500 C0            1 RES     
   14241 C0         598.4160  -667.6178  -402.1603 C0            1 RES     
   14242 C0         598.6421  -668.0775  -400.7042 C0            1 RES     
   14243 C0         600.0800  -668.4862  -400.2974 C0            1 RES     
   14244 C0         601.1663  -667.4010  -400.2437 C0            1 RES     
   14245 C0         600.8065  -666.2461  -399.3112 C0            1 RES     
   14246 H6         589.7896  -668.3374  -407.7097 H6            1 RES     
   14247 H6         589.0706  -667.3851  -409.0405 H6            1 RES     
   14248 H6         589.5465  -665.3080  -408.1250 H6            1 RES     
   14249 H6         590.1206  -665.9157  -406.5575 H6            1 RES     
   14250 H6         591.5288  -666.3436  -409.2628 H6            1 RES     
   14251 H6         591.8397  -665.0463  -408.0714 H6            1 RES     
   14252 H6         592.4758  -668.0210  -407.6194 H6            1 RES     
   14253 H6         593.5684  -666.6163  -407.8591 H6            1 RES     
   14254 H6         592.4075  -665.6107  -405.6704 H6            1 RES     
   14255 H6         591.7482  -667.2723  -405.5104 H6            1 RES     
   14256 H6         594.1490  -668.1577  -405.4824 H6            1 RES     
   14257 H6         593.5923  -667.1775  -404.0793 H6            1 RES     
   14258 H6         595.2754  -665.9929  -406.3650 H6            1 RES     
   14259 H6         594.6132  -665.1344  -404.9209 H6            1 RES     
   14260 H6         595.8872  -666.6895  -403.4323 H6            1 RES     
   14261 H6         596.6419  -667.4497  -404.9067 H6            1 RES     
   14262 H6         597.4228  -665.0819  -405.5367 H6            1 RES     
   14263 H6         596.8466  -664.5190  -403.9310 H6            1 RES     
   14264 H6         599.1470  -666.5067  -404.5717 H6            1 RES     
   14265 H6         599.2431  -664.7998  -404.0489 H6            1 RES     
   14266 H6         598.2428  -665.4466  -401.7955 H6            1 RES     
   14267 H6         599.8670  -666.0328  -402.2278 H6            1 RES     
   14268 H6         597.3366  -667.7262  -402.3370 H6            1 RES     
   14269 H6         598.9414  -668.3143  -402.8489 H6            1 RES     
   14270 H6         598.0548  -669.0164  -400.5923 H6            1 RES     
   14271 H6         598.2044  -667.3449  -399.9935 H6            1 RES     
   14272 H6         600.0096  -668.9234  -399.2768 H6            1 RES     
   14273 H6         600.4285  -669.2939  -400.9775 H6            1 RES     
   14274 H6         602.0991  -667.8740  -399.8660 H6            1 RES     
   14275 H6         601.4083  -667.0277  -401.2538 H6            1 RES     
   14276 H6         600.6206  -666.6254  -398.2840 H6            1 RES     
   14277 H6         601.6484  -665.5232  -399.2767 H6            1 RES     
   14278 H6         599.9045  -665.7115  -399.6728 H6            1 RES     
   14279 C0         584.8394  -678.1496  -413.6319 C0            1 RES     
   14280 C1         584.3814  -676.7116  -413.3112 C1            1 RES     
   14281 C1         583.3422  -676.1845  -414.2196 C1            1 RES     
   14282 S2         583.6775  -674.4231  -414.3710 S2            1 RES     
   14283 C1         584.2278  -674.5794  -412.6572 C1            1 RES     
   14284 C1         584.7297  -675.8360  -412.3745 C1            1 RES     
   14285 C1         583.4860  -677.1250  -415.3209 C1            1 RES     
   14286 C1         584.2532  -678.2180  -415.0394 C1            1 RES     
   14287 C1         584.2967  -679.1386  -416.1020 C1            1 RES     
   14288 C1         583.4908  -678.7181  -417.1870 C1            1 RES     
   14289 S2         582.7582  -677.2341  -416.8057 S2            1 RES     
   14290 H3         585.4156  -676.0073  -411.5612 H3            1 RES     
   14291 H3         584.8624  -680.0618  -416.0820 H3            1 RES     
   14292 N4         584.2285  -680.3268  -418.9002 N4            1 RES     
   14293 C1         584.1510  -680.9587  -420.1089 C1            1 RES     
   14294 C1         583.0861  -680.7086  -420.9828 C1            1 RES     
   14295 C1         582.1080  -679.8040  -420.5893 C1            1 RES     
   14296 N4         581.0228  -679.4991  -421.3422 N4            1 RES     
   14297 S2         580.2289  -678.4093  -420.3884 S2            1 RES     
   14298 N4         581.1937  -678.2825  -419.0534 N4            1 RES     
   14299 C1         582.2101  -679.1393  -419.3369 C1            1 RES     
   14300 C1         583.3011  -679.4133  -418.4841 C1            1 RES     
   14301 H5         584.9251  -681.6571  -420.3996 H5            1 RES     
   14302 C0         584.0873  -679.1750  -412.7226 C0            1 RES     
   14303 C0         584.4328  -679.0482  -411.2355 C0            1 RES     
   14304 C0         583.6204  -679.9220  -410.2748 C0            1 RES     
   14305 C0         582.1082  -679.6493  -410.2382 C0            1 RES     
   14306 C0         581.7574  -678.1502  -410.1446 C0            1 RES     
   14307 C0         580.2762  -677.9231  -409.8188 C0            1 RES     
   14308 C0         580.0135  -678.1111  -408.3164 C0            1 RES     
   14309 C0         578.5304  -677.9530  -407.9788 C0            1 RES     
   14310 C0         578.3293  -677.9235  -406.4605 C0            1 RES     
   14311 C0         576.8785  -678.0666  -405.9588 C0            1 RES     
   14312 C0         575.8345  -677.0397  -406.4411 C0            1 RES     
   14313 C0         575.2722  -677.3391  -407.8489 C0            1 RES     
   14314 C0         574.1751  -676.3722  -408.3369 C0            1 RES     
   14315 C0         572.7344  -676.6107  -407.8241 C0            1 RES     
   14316 C0         572.4432  -676.3944  -406.3317 C0            1 RES     
   14317 C0         572.8176  -674.9936  -405.8513 C0            1 RES     
   14318 H6         582.9982  -678.9919  -412.8402 H6            1 RES     
   14319 H6         584.2889  -680.2142  -413.0628 H6            1 RES     
   14320 H6         585.4708  -679.3494  -411.1044 H6            1 RES     
   14321 H6         584.3238  -677.9993  -410.9033 H6            1 RES     
   14322 H6         583.7916  -680.9996  -410.4872 H6            1 RES     
   14323 H6         584.0213  -679.7126  -409.2577 H6            1 RES     
   14324 H6         581.6193  -680.0620  -411.1473 H6            1 RES     
   14325 H6         581.7169  -680.2113  -409.3652 H6            1 RES     
   14326 H6         582.3786  -677.6249  -409.3864 H6            1 RES     
   14327 H6         581.9735  -677.6966  -411.1356 H6            1 RES     
   14328 H6         579.6424  -678.5884  -410.4461 H6            1 RES     
   14329 H6         580.0175  -676.8693  -410.0627 H6            1 RES     
   14330 H6         580.3428  -679.1127  -407.9703 H6            1 RES     
   14331 H6         580.6028  -677.3395  -407.7713 H6            1 RES     
   14332 H6         578.1761  -676.9891  -408.3970 H6            1 RES     
   14333 H6         577.9786  -678.8055  -408.4317 H6            1 RES     
   14334 H6         578.8908  -678.7693  -406.0054 H6            1 RES     
   14335 H6         578.7693  -676.9780  -406.0714 H6            1 RES     
   14336 H6         576.4980  -679.0910  -406.1612 H6            1 RES     
   14337 H6         576.9542  -677.9609  -404.8533 H6            1 RES     
   14338 H6         576.2414  -676.0079  -406.3679 H6            1 RES     
   14339 H6         575.0094  -677.1216  -405.7234 H6            1 RES     
   14340 H6         576.0896  -677.2375  -408.5762 H6            1 RES     
   14341 H6         574.8974  -678.3834  -407.9168 H6            1 RES     
   14342 H6         574.1002  -676.5327  -409.4360 H6            1 RES     
   14343 H6         574.4971  -675.3194  -408.1927 H6            1 RES     
   14344 H6         572.0773  -675.9128  -408.3884 H6            1 RES     
   14345 H6         572.4248  -677.6445  -408.0925 H6            1 RES     
   14346 H6         571.3521  -676.5368  -406.1751 H6            1 RES     
   14347 H6         572.9364  -677.1649  -405.7144 H6            1 RES     
   14348 H6         572.2732  -674.2269  -406.4420 H6            1 RES     
   14349 H6         572.5404  -674.8838  -404.7819 H6            1 RES     
   14350 H6         573.9089  -674.8201  -405.9454 H6            1 RES     
   14351 C0         586.4066  -678.3741  -413.6985 C0            1 RES     
   14352 C0         587.2302  -677.6636  -412.5965 C0            1 RES     
   14353 C0         588.7366  -677.9903  -412.5049 C0            1 RES     
   14354 C0         589.1421  -679.3324  -411.8468 C0            1 RES     
   14355 C0         588.4551  -679.5576  -410.4837 C0            1 RES     
   14356 C0         589.0896  -680.6398  -409.5981 C0            1 RES     
   14357 C0         590.3308  -680.1103  -408.8612 C0            1 RES     
   14358 C0         590.9117  -681.1602  -407.9026 C0            1 RES     
   14359 C0         592.0274  -680.5462  -407.0466 C0            1 RES     
   14360 C0         592.8961  -681.5256  -406.2279 C0            1 RES     
   14361 C0         592.2274  -682.3761  -405.1270 C0            1 RES     
   14362 C0         591.4755  -683.6161  -405.6525 C0            1 RES     
   14363 C0         590.8835  -684.5333  -404.5611 C0            1 RES     
   14364 C0         591.8410  -685.5389  -403.8741 C0            1 RES     
   14365 C0         592.9570  -684.9929  -402.9702 C0            1 RES     
   14366 C0         592.4277  -684.1160  -401.8372 C0            1 RES     
   14367 H6         586.6003  -679.4686  -413.6998 H6            1 RES     
   14368 H6         586.8061  -677.9733  -414.6571 H6            1 RES     
   14369 H6         587.1803  -676.5821  -412.8396 H6            1 RES     
   14370 H6         586.8043  -677.7898  -411.5922 H6            1 RES     
   14371 H6         589.2205  -677.8853  -413.4995 H6            1 RES     
   14372 H6         589.1696  -677.2039  -411.8467 H6            1 RES     
   14373 H6         588.9194  -680.1964  -412.5098 H6            1 RES     
   14374 H6         590.2432  -679.2841  -411.7100 H6            1 RES     
   14375 H6         588.3983  -678.6165  -409.8934 H6            1 RES     
   14376 H6         587.4336  -679.8904  -410.7106 H6            1 RES     
   14377 H6         589.3041  -681.5571  -410.1891 H6            1 RES     
   14378 H6         588.3472  -680.9013  -408.8129 H6            1 RES     
   14379 H6         591.1122  -679.7966  -409.5847 H6            1 RES     
   14380 H6         590.0218  -679.2216  -408.2650 H6            1 RES     
   14381 H6         590.0985  -681.4985  -407.2318 H6            1 RES     
   14382 H6         591.3018  -682.0114  -408.5008 H6            1 RES     
   14383 H6         592.7327  -680.0197  -407.7268 H6            1 RES     
   14384 H6         591.5811  -679.7849  -406.3682 H6            1 RES     
   14385 H6         593.4707  -682.1916  -406.9071 H6            1 RES     
   14386 H6         593.6353  -680.8731  -405.7110 H6            1 RES     
   14387 H6         591.5753  -681.7426  -404.4874 H6            1 RES     
   14388 H6         593.0590  -682.7260  -404.5025 H6            1 RES     
   14389 H6         590.6144  -683.2657  -406.2388 H6            1 RES     
   14390 H6         592.1192  -684.2203  -406.3277 H6            1 RES     
   14391 H6         590.1442  -685.1811  -405.0835 H6            1 RES     
   14392 H6         590.3115  -683.9356  -403.8202 H6            1 RES     
   14393 H6         591.2077  -686.1999  -403.2418 H6            1 RES     
   14394 H6         592.3074  -686.1793  -404.6544 H6            1 RES     
   14395 H6         593.4832  -685.8624  -402.5191 H6            1 RES     
   14396 H6         593.7198  -684.4541  -403.5585 H6            1 RES     
   14397 H6         591.7036  -684.6856  -401.2168 H6            1 RES     
   14398 H6         593.2731  -683.7951  -401.1929 H6            1 RES     
   14399 H6         591.9322  -683.2081  -402.2374 H6            1 RES     
   14400 C0         583.2820  -684.5841  -424.5937 C0            1 RES     
   14401 C1         583.0164  -683.2412  -423.8819 C1            1 RES     
   14402 C1         582.6632  -682.1289  -424.7879 C1            1 RES     
   14403 S2         583.3656  -680.6511  -424.0392 S2            1 RES     
   14404 C1         582.9871  -681.4945  -422.4870 C1            1 RES     
   14405 C1         583.0372  -682.8708  -422.6061 C1            1 RES     
   14406 C1         583.1298  -682.6878  -426.0481 C1            1 RES     
   14407 C1         583.4395  -684.0162  -426.0015 C1            1 RES     
   14408 C1         583.8057  -684.5323  -427.2577 C1            1 RES     
   14409 C1         583.7160  -683.5473  -428.2703 C1            1 RES     
   14410 S2         583.1951  -682.0814  -427.5889 S2            1 RES     
   14411 H3         583.2025  -683.5120  -421.7559 H3            1 RES     
   14412 H3         584.1009  -685.5600  -427.4286 H3            1 RES     
   14413 N4         584.8537  -684.7330  -430.1051 N4            1 RES     
   14414 C1         585.2422  -684.9070  -431.4033 C1            1 RES     
   14415 C1         584.7966  -684.0400  -432.4084 C1            1 RES     
   14416 C1         583.9468  -682.9998  -432.0536 C1            1 RES     
   14417 N4         583.4368  -682.1127  -432.9426 N4            1 RES     
   14418 S2         582.5130  -681.1412  -431.9781 S2            1 RES     
   14419 N4         582.7257  -681.7745  -430.4672 N4            1 RES     
   14420 C1         583.5650  -682.8188  -430.6964 C1            1 RES     
   14421 C1         584.0383  -683.7101  -429.7095 C1            1 RES     
   14422 H5         585.9083  -685.7209  -431.6593 H5            1 RES     
   14423 C0         582.0035  -685.4829  -424.5532 C0            1 RES     
   14424 C0         581.6132  -685.9348  -423.1425 C0            1 RES     
   14425 C0         580.2880  -686.6929  -423.0169 C0            1 RES     
   14426 C0         579.0284  -685.9107  -423.4221 C0            1 RES     
   14427 C0         578.9750  -684.4862  -422.8330 C0            1 RES     
   14428 C0         577.5949  -683.8408  -423.0070 C0            1 RES     
   14429 C0         576.6149  -684.3533  -421.9399 C0            1 RES     
   14430 C0         575.2141  -683.7715  -422.1343 C0            1 RES     
   14431 C0         574.3217  -684.1191  -420.9388 C0            1 RES     
   14432 C0         572.8114  -683.8636  -421.1141 C0            1 RES     
   14433 C0         572.3478  -682.4334  -421.4561 C0            1 RES     
   14434 C0         572.4810  -682.0782  -422.9539 C0            1 RES     
   14435 C0         571.9629  -680.6800  -423.3456 C0            1 RES     
   14436 C0         570.4374  -680.5157  -423.5488 C0            1 RES     
   14437 C0         569.5166  -680.6576  -422.3278 C0            1 RES     
   14438 C0         569.8802  -679.6986  -421.1959 C0            1 RES     
   14439 H6         581.1626  -684.8889  -424.9699 H6            1 RES     
   14440 H6         582.1366  -686.3741  -425.2046 H6            1 RES     
   14441 H6         582.3809  -686.6184  -422.7837 H6            1 RES     
   14442 H6         581.5652  -685.0664  -422.4598 H6            1 RES     
   14443 H6         580.3264  -687.6445  -423.5899 H6            1 RES     
   14444 H6         580.1858  -686.9537  -421.9395 H6            1 RES     
   14445 H6         578.9640  -685.8291  -424.5289 H6            1 RES     
   14446 H6         578.1665  -686.5212  -423.0822 H6            1 RES     
   14447 H6         579.2468  -684.4722  -421.7547 H6            1 RES     
   14448 H6         579.7222  -683.8727  -423.3806 H6            1 RES     
   14449 H6         577.2224  -684.0124  -424.0413 H6            1 RES     
   14450 H6         577.6950  -682.7438  -422.8537 H6            1 RES     
   14451 H6         576.5366  -685.4600  -421.9607 H6            1 RES     
   14452 H6         577.0093  -684.0474  -420.9446 H6            1 RES     
   14453 H6         575.2982  -682.6678  -422.1984 H6            1 RES     
   14454 H6         574.7921  -684.1897  -423.0742 H6            1 RES     
   14455 H6         574.4204  -685.2051  -420.7181 H6            1 RES     
   14456 H6         574.6966  -683.5592  -420.0527 H6            1 RES     
   14457 H6         572.3829  -684.5698  -421.8575 H6            1 RES     
   14458 H6         572.3684  -684.1233  -420.1266 H6            1 RES     
   14459 H6         572.8621  -681.6923  -420.8067 H6            1 RES     
   14460 H6         571.2820  -682.4158  -421.1982 H6            1 RES     
   14461 H6         573.5486  -682.0727  -423.2142 H6            1 RES     
   14462 H6         571.9891  -682.8437  -423.5925 H6            1 RES     
   14463 H6         572.3929  -680.4707  -424.3509 H6            1 RES     
   14464 H6         572.3746  -679.9101  -422.6596 H6            1 RES     
   14465 H6         570.2802  -679.4932  -423.9578 H6            1 RES     
   14466 H6         570.0992  -681.2367  -424.3250 H6            1 RES     
   14467 H6         568.4794  -680.4312  -422.6572 H6            1 RES     
   14468 H6         569.4938  -681.6999  -421.9657 H6            1 RES     
   14469 H6         569.8456  -678.6488  -421.5563 H6            1 RES     
   14470 H6         569.1529  -679.8153  -420.3653 H6            1 RES     
   14471 H6         570.8936  -679.9161  -420.8015 H6            1 RES     
   14472 C0         584.6124  -685.3349  -424.1726 C0            1 RES     
   14473 C0         584.9293  -685.3325  -422.6570 C0            1 RES     
   14474 C0         586.1121  -686.1979  -422.1708 C0            1 RES     
   14475 C0         585.8834  -687.7251  -422.0509 C0            1 RES     
   14476 C0         584.5995  -688.0745  -421.2698 C0            1 RES     
   14477 C0         584.5089  -689.5226  -420.7672 C0            1 RES     
   14478 C0         585.3227  -689.7250  -419.4785 C0            1 RES     
   14479 C0         585.1576  -691.1467  -418.9212 C0            1 RES     
   14480 C0         585.8234  -691.2637  -417.5438 C0            1 RES     
   14481 C0         585.9854  -692.6868  -416.9671 C0            1 RES     
   14482 C0         584.7208  -693.5180  -416.6630 C0            1 RES     
   14483 C0         584.0867  -694.1840  -417.9014 C0            1 RES     
   14484 C0         582.8794  -695.0992  -417.6056 C0            1 RES     
   14485 C0         583.1752  -696.5392  -417.1168 C0            1 RES     
   14486 C0         583.8051  -696.7305  -415.7286 C0            1 RES     
   14487 C0         582.9808  -696.0964  -414.6100 C0            1 RES     
   14488 H6         584.5659  -686.3719  -424.5700 H6            1 RES     
   14489 H6         585.4909  -684.8446  -424.6491 H6            1 RES     
   14490 H6         585.2133  -684.2875  -422.4149 H6            1 RES     
   14491 H6         584.0598  -685.5841  -422.0352 H6            1 RES     
   14492 H6         587.0225  -685.9891  -422.7725 H6            1 RES     
   14493 H6         586.3213  -685.8553  -421.1326 H6            1 RES     
   14494 H6         585.8415  -688.2117  -423.0495 H6            1 RES     
   14495 H6         586.7705  -688.1247  -421.5153 H6            1 RES     
   14496 H6         584.4519  -687.3963  -420.4005 H6            1 RES     
   14497 H6         583.7684  -687.9287  -421.9723 H6            1 RES     
   14498 H6         584.7966  -690.2372  -421.5693 H6            1 RES     
   14499 H6         583.4469  -689.7137  -420.4999 H6            1 RES     
   14500 H6         586.3990  -689.5203  -419.6581 H6            1 RES     
   14501 H6         584.9460  -689.0029  -418.7187 H6            1 RES     
   14502 H6         584.0746  -691.3460  -418.8073 H6            1 RES     
   14503 H6         585.6120  -691.8647  -419.6371 H6            1 RES     
   14504 H6         586.8552  -690.8559  -417.6245 H6            1 RES     
   14505 H6         585.2651  -690.6281  -416.8204 H6            1 RES     
   14506 H6         586.6726  -693.2849  -417.6036 H6            1 RES     
   14507 H6         586.4984  -692.5326  -415.9912 H6            1 RES     
   14508 H6         583.9798  -692.9088  -416.1014 H6            1 RES     
   14509 H6         585.0664  -694.3144  -415.9921 H6            1 RES     
   14510 H6         583.6977  -693.3876  -418.5513 H6            1 RES     
   14511 H6         584.8432  -694.7538  -418.4830 H6            1 RES     
   14512 H6         582.3699  -695.2476  -418.5842 H6            1 RES     
   14513 H6         582.1515  -694.5807  -416.9463 H6            1 RES     
   14514 H6         582.2018  -697.0779  -417.1068 H6            1 RES     
   14515 H6         583.8231  -697.0454  -417.8655 H6            1 RES     
   14516 H6         583.8709  -697.8233  -415.5343 H6            1 RES     
   14517 H6         584.8446  -696.3599  -415.7071 H6            1 RES     
   14518 H6         581.9532  -696.5177  -414.6040 H6            1 RES     
   14519 H6         583.4593  -696.3112  -413.6314 H6            1 RES     
   14520 H6         582.9245  -694.9958  -414.7346 H6            1 RES     
   14521 C0         585.9364  -686.4714  -436.9784 C0            1 RES     
   14522 C1         585.6300  -685.3979  -435.9134 C1            1 RES     
   14523 C1         585.9772  -684.0199  -436.3174 C1            1 RES     
   14524 S2         586.5085  -683.1915  -434.8110 S2            1 RES     
   14525 C1         585.2781  -684.2552  -434.0245 C1            1 RES     
   14526 C1         585.1100  -685.4540  -434.6920 C1            1 RES     
   14527 C1         586.8705  -684.3128  -437.4284 C1            1 RES     
   14528 C1         586.8549  -685.6128  -437.8436 C1            1 RES     
   14529 C1         587.6687  -685.8325  -438.9697 C1            1 RES     
   14530 C1         588.2677  -684.6316  -439.4201 C1            1 RES     
   14531 S2         587.7811  -683.3474  -438.4208 S2            1 RES     
   14532 H3         584.7203  -686.3309  -434.2017 H3            1 RES     
   14533 H3         587.8031  -686.7976  -439.4419 H3            1 RES     
   14534 N4         589.8885  -685.5541  -441.0291 N4            1 RES     
   14535 C1         590.8080  -685.4674  -442.0357 C1            1 RES     
   14536 C1         591.0757  -684.2431  -442.6601 C1            1 RES     
   14537 C1         590.3807  -683.1186  -442.2329 C1            1 RES     
   14538 N4         590.5416  -681.8872  -442.7762 N4            1 RES     
   14539 S2         589.4783  -680.9758  -441.9006 S2            1 RES     
   14540 N4         588.8149  -682.0576  -440.8429 N4            1 RES     
   14541 C1         589.4401  -683.2189  -441.1719 C1            1 RES     
   14542 C1         589.2001  -684.4694  -440.5628 C1            1 RES     
   14543 H5         591.3424  -686.3540  -442.3518 H5            1 RES     
   14544 C0         584.6472  -686.8103  -437.7950 C0            1 RES     
   14545 C0         583.5504  -687.4823  -436.9629 C0            1 RES     
   14546 C0         582.2078  -687.7050  -437.6660 C0            1 RES     
   14547 C0         581.4750  -686.4351  -438.1273 C0            1 RES     
   14548 C0         581.4249  -685.3309  -437.0515 C0            1 RES     
   14549 C0         580.4517  -684.2058  -437.4238 C0            1 RES     
   14550 C0         579.0025  -684.6148  -437.1170 C0            1 RES     
   14551 C0         578.0089  -683.5324  -437.5409 C0            1 RES     
   14552 C0         576.6053  -683.8655  -437.0256 C0            1 RES     
   14553 C0         575.4454  -683.0369  -437.6128 C0            1 RES     
   14554 C0         575.4902  -681.5039  -437.4548 C0            1 RES     
   14555 C0         576.3895  -680.7978  -438.4941 C0            1 RES     
   14556 C0         576.4051  -679.2584  -438.4107 C0            1 RES     
   14557 C0         575.2277  -678.4965  -439.0655 C0            1 RES     
   14558 C0         573.8277  -678.6452  -438.4517 C0            1 RES     
   14559 C0         573.7847  -678.2642  -436.9732 C0            1 RES     
   14560 H6         584.2417  -685.8561  -438.1933 H6            1 RES     
   14561 H6         584.8990  -687.4543  -438.6657 H6            1 RES     
   14562 H6         583.9033  -688.4720  -436.6775 H6            1 RES     
   14563 H6         583.3519  -686.8988  -436.0450 H6            1 RES     
   14564 H6         582.3294  -688.3908  -438.5323 H6            1 RES     
   14565 H6         581.5544  -688.2153  -436.9231 H6            1 RES     
   14566 H6         581.9648  -686.0137  -439.0318 H6            1 RES     
   14567 H6         580.4555  -686.7597  -438.4211 H6            1 RES     
   14568 H6         581.1449  -685.7352  -436.0541 H6            1 RES     
   14569 H6         582.4461  -684.9006  -436.9702 H6            1 RES     
   14570 H6         580.5938  -683.9169  -438.4888 H6            1 RES     
   14571 H6         580.6776  -683.3186  -436.7923 H6            1 RES     
   14572 H6         578.7299  -685.5576  -437.6351 H6            1 RES     
   14573 H6         578.9239  -684.7817  -436.0190 H6            1 RES     
   14574 H6         578.3264  -682.5694  -437.0923 H6            1 RES     
   14575 H6         578.0154  -683.4710  -438.6512 H6            1 RES     
   14576 H6         576.3730  -684.9257  -437.2703 H6            1 RES     
   14577 H6         576.6118  -683.7688  -435.9167 H6            1 RES     
   14578 H6         575.2963  -683.2854  -438.6858 H6            1 RES     
   14579 H6         574.5432  -683.3952  -437.0681 H6            1 RES     
   14580 H6         575.7645  -681.2282  -436.4135 H6            1 RES     
   14581 H6         574.4575  -681.1752  -437.6228 H6            1 RES     
   14582 H6         577.4293  -681.1060  -438.3175 H6            1 RES     
   14583 H6         576.1245  -681.1063  -439.5286 H6            1 RES     
   14584 H6         577.2949  -678.9346  -438.9964 H6            1 RES     
   14585 H6         576.5797  -678.9307  -437.3642 H6            1 RES     
   14586 H6         575.4877  -677.4157  -439.0250 H6            1 RES     
   14587 H6         575.1689  -678.7814  -440.1388 H6            1 RES     
   14588 H6         573.1410  -677.9697  -439.0062 H6            1 RES     
   14589 H6         573.4323  -679.6641  -438.6051 H6            1 RES     
   14590 H6         574.1317  -677.2182  -436.8361 H6            1 RES     
   14591 H6         572.7420  -678.3463  -436.6011 H6            1 RES     
   14592 H6         574.4218  -678.9423  -436.3698 H6            1 RES     
   14593 C0         586.7284  -687.7441  -436.4648 C0            1 RES     
   14594 C0         586.2756  -688.3039  -435.0940 C0            1 RES     
   14595 C0         586.8878  -689.6432  -434.6293 C0            1 RES     
   14596 C0         586.3374  -690.9438  -435.2651 C0            1 RES     
   14597 C0         584.7963  -691.0137  -435.2364 C0            1 RES     
   14598 C0         584.1965  -692.4075  -435.4714 C0            1 RES     
   14599 C0         584.2380  -693.2628  -434.1944 C0            1 RES     
   14600 C0         583.5534  -694.6222  -434.4001 C0            1 RES     
   14601 C0         583.4423  -695.3741  -433.0672 C0            1 RES     
   14602 C0         583.0284  -696.8599  -433.1381 C0            1 RES     
   14603 C0         581.6381  -697.2219  -433.7027 C0            1 RES     
   14604 C0         581.5574  -697.2140  -435.2430 C0            1 RES     
   14605 C0         580.2038  -697.6687  -435.8294 C0            1 RES     
   14606 C0         579.9432  -699.1924  -435.9314 C0            1 RES     
   14607 C0         579.7818  -700.0000  -434.6343 C0            1 RES     
   14608 C0         578.6644  -699.4683  -433.7389 C0            1 RES     
   14609 H6         586.6767  -688.5260  -437.2531 H6            1 RES     
   14610 H6         587.8040  -687.4915  -436.3293 H6            1 RES     
   14611 H6         586.6065  -687.5559  -434.3441 H6            1 RES     
   14612 H6         585.1847  -688.3917  -435.0042 H6            1 RES     
   14613 H6         587.9958  -689.6139  -434.7058 H6            1 RES     
   14614 H6         586.6373  -689.7226  -433.5476 H6            1 RES     
   14615 H6         586.6841  -691.0643  -436.3143 H6            1 RES     
   14616 H6         586.7633  -691.7783  -434.6686 H6            1 RES     
   14617 H6         584.3862  -690.6167  -434.2816 H6            1 RES     
   14618 H6         584.4487  -690.3746  -436.0589 H6            1 RES     
   14619 H6         584.6873  -692.9075  -436.3351 H6            1 RES     
   14620 H6         583.1219  -692.2673  -435.7194 H6            1 RES     
   14621 H6         585.2855  -693.4220  -433.8629 H6            1 RES     
   14622 H6         583.6927  -692.7112  -433.3951 H6            1 RES     
   14623 H6         582.5326  -694.4364  -434.7861 H6            1 RES     
   14624 H6         584.1451  -695.2115  -435.1330 H6            1 RES     
   14625 H6         584.4440  -695.3668  -432.5835 H6            1 RES     
   14626 H6         582.7420  -694.8219  -432.4012 H6            1 RES     
   14627 H6         583.8048  -697.4517  -433.6692 H6            1 RES     
   14628 H6         583.0312  -697.1983  -432.0776 H6            1 RES     
   14629 H6         580.8535  -696.5786  -433.2484 H6            1 RES     
   14630 H6         581.4583  -698.2490  -433.3612 H6            1 RES     
   14631 H6         581.6900  -696.1773  -435.5829 H6            1 RES     
   14632 H6         582.3725  -697.8222  -435.6914 H6            1 RES     
   14633 H6         580.2064  -697.3257  -436.8884 H6            1 RES     
   14634 H6         579.3662  -697.1391  -435.3282 H6            1 RES     
   14635 H6         578.9999  -699.3158  -436.5081 H6            1 RES     
   14636 H6         580.7575  -699.6556  -436.5304 H6            1 RES     
   14637 H6         579.5325  -701.0464  -434.9158 H6            1 RES     
   14638 H6         580.7339  -700.0585  -434.0791 H6            1 RES     
   14639 H6         577.6994  -699.4671  -434.2888 H6            1 RES     
   14640 H6         578.5646  -700.1208  -432.8462 H6            1 RES     
   14641 H6         578.8900  -698.4390  -433.3930 H6            1 RES     
   14642 C0         593.7635  -685.4612  -447.0633 C0            1 RES     
   14643 C1         593.2008  -684.7147  -445.8358 C1            1 RES     
   14644 C1         593.9596  -683.5054  -445.4554 C1            1 RES     
   14645 S2         593.8557  -683.4113  -443.6615 S2            1 RES     
   14646 C1         592.2188  -684.1331  -443.9136 C1            1 RES     
   14647 C1         592.1606  -684.9340  -445.0388 C1            1 RES     
   14648 C1         595.1988  -683.7632  -446.1738 C1            1 RES     
   14649 C1         595.1309  -684.7835  -447.0777 C1            1 RES     
   14650 C1         596.3235  -684.9430  -447.8063 C1            1 RES     
   14651 C1         597.2856  -683.9685  -447.4480 C1            1 RES     
   14652 S2         596.6411  -682.9508  -446.2507 S2            1 RES     
   14653 H3         591.4217  -685.7106  -445.1495 H3            1 RES     
   14654 H3         596.4766  -685.7055  -448.5598 H3            1 RES     
   14655 N4         599.2634  -684.9013  -448.5815 N4            1 RES     
   14656 C1         600.5492  -684.8640  -449.0420 C1            1 RES     
   14657 C1         601.3152  -683.6966  -448.9386 C1            1 RES     
   14658 C1         600.7347  -682.5755  -448.3589 C1            1 RES     
   14659 N4         601.3719  -681.3867  -448.2243 N4            1 RES     
   14660 S2         600.2200  -680.4514  -447.4990 S2            1 RES     
   14661 N4         598.9356  -681.4760  -447.3274 N4            1 RES     
   14662 C1         599.4023  -682.6330  -447.8670 C1            1 RES     
   14663 C1         598.6621  -683.8292  -447.9841 C1            1 RES     
   14664 H5         600.9854  -685.7491  -449.4867 H5            1 RES     
   14665 C0         592.9837  -685.0494  -448.3542 C0            1 RES     
   14666 C0         591.5157  -685.4875  -448.3526 C0            1 RES     
   14667 C0         590.6586  -684.9870  -449.5195 C0            1 RES     
   14668 C0         590.4987  -683.4622  -449.6267 C0            1 RES     
   14669 C0         590.1564  -682.7853  -448.2836 C0            1 RES     
   14670 C0         589.7199  -681.3267  -448.4668 C0            1 RES     
   14671 C0         588.2524  -681.2492  -448.9164 C0            1 RES     
   14672 C0         587.8148  -679.8058  -449.1679 C0            1 RES     
   14673 C0         586.3015  -679.7393  -449.3958 C0            1 RES     
   14674 C0         585.7501  -678.4111  -449.9515 C0            1 RES     
   14675 C0         586.0113  -677.1200  -449.1503 C0            1 RES     
   14676 C0         587.4159  -676.5187  -449.3808 C0            1 RES     
   14677 C0         587.6890  -675.1894  -448.6493 C0            1 RES     
   14678 C0         587.1420  -673.8939  -449.2957 C0            1 RES     
   14679 C0         585.6205  -673.6948  -449.3622 C0            1 RES     
   14680 C0         584.9510  -673.7778  -447.9919 C0            1 RES     
   14681 H6         593.0126  -683.9414  -448.4246 H6            1 RES     
   14682 H6         593.4903  -685.4538  -449.2576 H6            1 RES     
   14683 H6         591.4889  -686.5744  -448.4099 H6            1 RES     
   14684 H6         591.0205  -685.1700  -447.4165 H6            1 RES     
   14685 H6         591.0435  -685.3821  -450.4845 H6            1 RES     
   14686 H6         589.6445  -685.4179  -449.3608 H6            1 RES     
   14687 H6         591.4328  -683.0025  -450.0167 H6            1 RES     
   14688 H6         589.7029  -683.2901  -450.3804 H6            1 RES     
   14689 H6         589.3611  -683.3338  -447.7330 H6            1 RES     
   14690 H6         591.0760  -682.8020  -447.6601 H6            1 RES     
   14691 H6         590.4070  -680.8099  -449.1729 H6            1 RES     
   14692 H6         589.7842  -680.8116  -447.4832 H6            1 RES     
   14693 H6         588.0832  -681.8299  -449.8468 H6            1 RES     
   14694 H6         587.6277  -681.6912  -448.1076 H6            1 RES     
   14695 H6         588.0597  -679.2032  -448.2699 H6            1 RES     
   14696 H6         588.3631  -679.4270  -450.0580 H6            1 RES     
   14697 H6         586.0131  -680.5187  -450.1355 H6            1 RES     
   14698 H6         585.7957  -679.9826  -448.4345 H6            1 RES     
   14699 H6         586.0870  -678.2602  -450.9998 H6            1 RES     
   14700 H6         584.6473  -678.5586  -449.9829 H6            1 RES     
   14701 H6         585.8021  -677.2832  -448.0709 H6            1 RES     
   14702 H6         585.2712  -676.4032  -449.5260 H6            1 RES     
   14703 H6         588.1620  -677.2226  -448.9867 H6            1 RES     
   14704 H6         587.6235  -676.3898  -450.4652 H6            1 RES     
   14705 H6         588.7941  -675.0558  -448.6711 H6            1 RES     
   14706 H6         587.4020  -675.2718  -447.5798 H6            1 RES     
   14707 H6         587.5557  -673.0461  -448.7062 H6            1 RES     
   14708 H6         587.5493  -673.8080  -450.3269 H6            1 RES     
   14709 H6         585.4290  -672.6842  -449.7834 H6            1 RES     
   14710 H6         585.1568  -674.4051  -450.0682 H6            1 RES     
   14711 H6         585.3862  -673.0211  -447.3055 H6            1 RES     
   14712 H6         583.8640  -673.5792  -448.0995 H6            1 RES     
   14713 H6         585.0761  -674.7870  -447.5494 H6            1 RES     
   14714 C0         593.9485  -687.0256  -446.8923 C0            1 RES     
   14715 C0         592.7964  -687.7583  -446.1621 C0            1 RES     
   14716 C0         592.8378  -689.3014  -446.1256 C0            1 RES     
   14717 C0         592.4172  -690.0620  -447.4076 C0            1 RES     
   14718 C0         591.0700  -689.5696  -447.9760 C0            1 RES     
   14719 C0         590.3973  -690.5125  -448.9841 C0            1 RES     
   14720 C0         589.6559  -691.6590  -448.2772 C0            1 RES     
   14721 C0         588.9033  -692.5491  -449.2772 C0            1 RES     
   14722 C0         588.0245  -693.5650  -448.5357 C0            1 RES     
   14723 C0         587.4147  -694.7053  -449.3794 C0            1 RES     
   14724 C0         586.4234  -694.3513  -450.5084 C0            1 RES     
   14725 C0         587.0922  -693.8614  -451.8091 C0            1 RES     
   14726 C0         586.1248  -693.5962  -452.9823 C0            1 RES     
   14727 C0         585.6538  -694.8167  -453.8119 C0            1 RES     
   14728 C0         584.7382  -695.8529  -453.1421 C0            1 RES     
   14729 C0         583.4566  -695.2391  -452.5821 C0            1 RES     
   14730 H6         594.1289  -687.4652  -447.8972 H6            1 RES     
   14731 H6         594.8541  -687.2350  -446.2798 H6            1 RES     
   14732 H6         592.8669  -687.4392  -445.1016 H6            1 RES     
   14733 H6         591.8020  -687.4640  -446.5234 H6            1 RES     
   14734 H6         593.8291  -689.6575  -445.7721 H6            1 RES     
   14735 H6         592.0907  -689.5986  -445.3557 H6            1 RES     
   14736 H6         593.1924  -689.9861  -448.2006 H6            1 RES     
   14737 H6         592.3344  -691.1301  -447.1146 H6            1 RES     
   14738 H6         590.3396  -689.3503  -447.1662 H6            1 RES     
   14739 H6         591.2899  -688.6361  -448.5108 H6            1 RES     
   14740 H6         591.1333  -690.8789  -449.7330 H6            1 RES     
   14741 H6         589.6228  -689.9233  -449.5217 H6            1 RES     
   14742 H6         590.3635  -692.2795  -447.6885 H6            1 RES     
   14743 H6         588.9141  -691.2080  -447.5794 H6            1 RES     
   14744 H6         588.2497  -691.8987  -449.8900 H6            1 RES     
   14745 H6         589.6457  -693.0698  -449.9192 H6            1 RES     
   14746 H6         588.6526  -694.0667  -447.7667 H6            1 RES     
   14747 H6         587.2138  -693.0177  -448.0045 H6            1 RES     
   14748 H6         588.2184  -695.3550  -449.7880 H6            1 RES     
   14749 H6         586.8442  -695.3174  -448.6451 H6            1 RES     
   14750 H6         585.6595  -693.6305  -450.1443 H6            1 RES     
   14751 H6         585.9062  -695.2933  -450.7297 H6            1 RES     
   14752 H6         587.5701  -692.8940  -451.5996 H6            1 RES     
   14753 H6         587.8863  -694.5641  -452.1421 H6            1 RES     
   14754 H6         586.7000  -692.9824  -453.7113 H6            1 RES     
   14755 H6         585.2708  -692.9702  -452.6473 H6            1 RES     
   14756 H6         585.0975  -694.4115  -454.6861 H6            1 RES     
   14757 H6         586.5474  -695.3467  -454.2081 H6            1 RES     
   14758 H6         584.4556  -696.6033  -453.9125 H6            1 RES     
   14759 H6         585.2768  -696.4157  -452.3602 H6            1 RES     
   14760 H6         582.8932  -694.7238  -453.3888 H6            1 RES     
   14761 H6         582.8173  -696.0417  -452.1583 H6            1 RES     
   14762 H6         583.6848  -694.5141  -451.7744 H6            1 RES     
   14763 C0         605.4853  -684.4573  -452.1210 C0            1 RES     
   14764 C1         604.5618  -683.9540  -450.9922 C1            1 RES     
   14765 C1         605.2652  -683.2750  -449.8845 C1            1 RES     
   14766 S2         604.3369  -683.6820  -448.3977 S2            1 RES     
   14767 C1         602.9150  -683.6477  -449.5118 C1            1 RES     
   14768 C1         603.2472  -684.0026  -450.8058 C1            1 RES     
   14769 C1         606.6198  -683.7435  -450.1367 C1            1 RES     
   14770 C1         606.7953  -684.3538  -451.3448 C1            1 RES     
   14771 C1         608.1339  -684.7155  -451.5805 C1            1 RES     
   14772 C1         608.9763  -684.3115  -450.5171 C1            1 RES     
   14773 S2         608.0500  -683.5299  -449.3273 S2            1 RES     
   14774 H3         602.5161  -684.3861  -451.4984 H3            1 RES     
   14775 H3         608.4768  -685.2230  -452.4735 H3            1 RES     
   14776 N4         611.0307  -685.5237  -451.1313 N4            1 RES     
   14777 C1         612.3592  -685.8246  -451.0272 C1            1 RES     
   14778 C1         613.1932  -685.1036  -450.1639 C1            1 RES     
   14779 C1         612.6370  -684.0722  -449.4178 C1            1 RES     
   14780 N4         613.3498  -683.2945  -448.5666 N4            1 RES     
   14781 S2         612.1986  -682.2615  -447.9877 S2            1 RES     
   14782 N4         610.8170  -682.7480  -448.7517 N4            1 RES     
   14783 C1         611.2495  -683.7814  -449.5215 C1            1 RES     
   14784 C1         610.4387  -684.5332  -450.3990 C1            1 RES     
   14785 H5         612.7732  -686.6346  -451.6137 H5            1 RES     
   14786 C0         605.5147  -683.4290  -453.2981 C0            1 RES     
   14787 C0         604.1714  -683.2804  -454.0195 C0            1 RES     
   14788 C0         604.0926  -682.1820  -455.0843 C0            1 RES     
   14789 C0         604.3038  -680.7452  -454.5808 C0            1 RES     
   14790 C0         603.5002  -680.4179  -453.3055 C0            1 RES     
   14791 C0         603.4979  -678.9164  -452.9940 C0            1 RES     
   14792 C0         602.4710  -678.1799  -453.8686 C0            1 RES     
   14793 C0         602.4975  -676.6712  -453.6205 C0            1 RES     
   14794 C0         601.3233  -675.9929  -454.3330 C0            1 RES     
   14795 C0         601.3752  -674.4549  -454.4273 C0            1 RES     
   14796 C0         601.4672  -673.6458  -453.1181 C0            1 RES     
   14797 C0         602.8974  -673.5597  -452.5397 C0            1 RES     
   14798 C0         603.0404  -672.7007  -451.2675 C0            1 RES     
   14799 C0         603.1331  -671.1665  -451.4493 C0            1 RES     
   14800 C0         601.9005  -670.4157  -451.9746 C0            1 RES     
   14801 C0         600.6557  -670.6480  -451.1204 C0            1 RES     
   14802 H6         605.7888  -682.4402  -452.8731 H6            1 RES     
   14803 H6         606.3018  -683.7051  -454.0334 H6            1 RES     
   14804 H6         603.9643  -684.2138  -454.5405 H6            1 RES     
   14805 H6         603.3615  -683.0947  -453.2901 H6            1 RES     
   14806 H6         604.8067  -682.3873  -455.9110 H6            1 RES     
   14807 H6         603.0644  -682.2390  -455.5070 H6            1 RES     
   14808 H6         605.3797  -680.5655  -454.3664 H6            1 RES     
   14809 H6         604.0160  -680.0809  -455.4215 H6            1 RES     
   14810 H6         602.4490  -680.7741  -453.3741 H6            1 RES     
   14811 H6         603.9865  -680.9519  -452.4611 H6            1 RES     
   14812 H6         604.5245  -678.5029  -453.1071 H6            1 RES     
   14813 H6         603.1830  -678.7745  -451.9368 H6            1 RES     
   14814 H6         602.6579  -678.3569  -454.9480 H6            1 RES     
   14815 H6         601.4633  -678.5802  -453.6159 H6            1 RES     
   14816 H6         602.3952  -676.4927  -452.5309 H6            1 RES     
   14817 H6         603.4664  -676.2748  -453.9954 H6            1 RES     
   14818 H6         601.2782  -676.3582  -455.3829 H6            1 RES     
   14819 H6         600.3831  -676.3062  -453.8259 H6            1 RES     
   14820 H6         602.1943  -674.1360  -455.1075 H6            1 RES     
   14821 H6         600.4170  -674.1733  -454.9188 H6            1 RES     
   14822 H6         600.7402  -674.0314  -452.3709 H6            1 RES     
   14823 H6         601.1524  -672.6320  -453.3932 H6            1 RES     
   14824 H6         603.2110  -674.5697  -452.2416 H6            1 RES     
   14825 H6         603.6188  -673.2024  -453.3063 H6            1 RES     
   14826 H6         604.0232  -672.9797  -450.8252 H6            1 RES     
   14827 H6         602.2672  -672.9836  -450.5224 H6            1 RES     
   14828 H6         603.3706  -670.7423  -450.4488 H6            1 RES     
   14829 H6         603.9916  -670.9357  -452.1173 H6            1 RES     
   14830 H6         602.1346  -669.3292  -451.9619 H6            1 RES     
   14831 H6         601.7027  -670.6659  -453.0311 H6            1 RES     
   14832 H6         600.8477  -670.3406  -450.0707 H6            1 RES     
   14833 H6         599.8149  -670.0441  -451.5214 H6            1 RES     
   14834 H6         600.3550  -671.7152  -451.1392 H6            1 RES     
   14835 C0         605.2575  -685.9569  -452.5796 C0            1 RES     
   14836 C0         603.7789  -686.3984  -452.7084 C0            1 RES     
   14837 C0         603.4966  -687.7872  -453.3215 C0            1 RES     
   14838 C0         603.6013  -687.9280  -454.8603 C0            1 RES     
   14839 C0         602.8150  -686.8339  -455.6123 C0            1 RES     
   14840 C0         602.5374  -687.1243  -457.0943 C0            1 RES     
   14841 C0         601.3412  -688.0743  -457.2691 C0            1 RES     
   14842 C0         601.0015  -688.2913  -458.7511 C0            1 RES     
   14843 C0         599.6965  -689.0861  -458.8916 C0            1 RES     
   14844 C0         599.3557  -689.6222  -460.2989 C0            1 RES     
   14845 C0         599.1153  -688.6152  -461.4439 C0            1 RES     
   14846 C0         600.4053  -688.0438  -462.0670 C0            1 RES     
   14847 C0         600.1893  -687.1110  -463.2778 C0            1 RES     
   14848 C0         599.9449  -687.7728  -464.6570 C0            1 RES     
   14849 C0         598.6389  -688.5509  -464.8790 C0            1 RES     
   14850 C0         597.3930  -687.7057  -464.6214 C0            1 RES     
   14851 H6         605.8068  -686.1152  -453.5328 H6            1 RES     
   14852 H6         605.6995  -686.6528  -451.8316 H6            1 RES     
   14853 H6         603.3945  -686.4545  -451.6690 H6            1 RES     
   14854 H6         603.1573  -685.6691  -453.2447 H6            1 RES     
   14855 H6         604.1073  -688.5677  -452.8191 H6            1 RES     
   14856 H6         602.4308  -688.0035  -453.0839 H6            1 RES     
   14857 H6         604.6591  -687.9104  -455.2013 H6            1 RES     
   14858 H6         603.1823  -688.9273  -455.1038 H6            1 RES     
   14859 H6         601.8450  -686.6120  -455.1151 H6            1 RES     
   14860 H6         603.4407  -685.9323  -455.5763 H6            1 RES     
   14861 H6         603.4544  -687.4961  -457.6018 H6            1 RES     
   14862 H6         602.2457  -686.1629  -457.5704 H6            1 RES     
   14863 H6         601.5450  -689.0540  -456.7885 H6            1 RES     
   14864 H6         600.4600  -687.6106  -456.7699 H6            1 RES     
   14865 H6         600.8612  -687.2978  -459.2191 H6            1 RES     
   14866 H6         601.8429  -688.8332  -459.2335 H6            1 RES     
   14867 H6         599.7692  -689.9849  -458.2402 H6            1 RES     
   14868 H6         598.8548  -688.4631  -458.5144 H6            1 RES     
   14869 H6         600.1129  -690.3691  -460.6210 H6            1 RES     
   14870 H6         598.3968  -690.1707  -460.1607 H6            1 RES     
   14871 H6         598.4273  -687.8069  -461.1138 H6            1 RES     
   14872 H6         598.5948  -689.1933  -462.2177 H6            1 RES     
   14873 H6         600.9028  -687.4256  -461.3066 H6            1 RES     
   14874 H6         601.1079  -688.8563  -462.3527 H6            1 RES     
   14875 H6         601.1500  -686.5642  -463.4092 H6            1 RES     
   14876 H6         599.4196  -686.3450  -463.0451 H6            1 RES     
   14877 H6         599.9654  -686.9545  -465.4105 H6            1 RES     
   14878 H6         600.7966  -688.4505  -464.8848 H6            1 RES     
   14879 H6         598.6191  -688.8836  -465.9398 H6            1 RES     
   14880 H6         598.6168  -689.4748  -464.2755 H6            1 RES     
   14881 H6         597.3964  -686.8075  -465.2747 H6            1 RES     
   14882 H6         596.4866  -688.3060  -464.8465 H6            1 RES     
   14883 H6         597.3434  -687.3866  -463.5604 H6            1 RES     
   14884 C0         618.1381  -686.3610  -451.6001 C0            1 RES     
   14885 C1         616.9054  -685.9117  -450.7883 C1            1 RES     
   14886 C1         617.1105  -685.8948  -449.3252 C1            1 RES     
   14887 S2         615.5254  -686.3531  -448.6074 S2            1 RES     
   14888 C1         614.8468  -685.4758  -450.0336 C1            1 RES     
   14889 C1         615.6809  -685.5295  -451.1346 C1            1 RES     
   14890 C1         618.3000  -686.7289  -449.2395 C1            1 RES     
   14891 C1         618.9091  -686.9763  -450.4355 C1            1 RES     
   14892 C1         620.0979  -687.7151  -450.2964 C1            1 RES     
   14893 C1         620.3896  -687.9789  -448.9366 C1            1 RES     
   14894 S2         619.1796  -687.3006  -447.9566 S2            1 RES     
   14895 H3         615.3113  -685.3974  -452.1382 H3            1 RES     
   14896 H3         620.7198  -688.0256  -451.1268 H3            1 RES     
   14897 N4         622.2068  -689.6186  -449.2124 N4            1 RES     
   14898 C1         623.2363  -690.4001  -448.7698 C1            1 RES     
   14899 C1         623.6782  -690.3219  -447.4435 C1            1 RES     
   14900 C1         623.0459  -689.4276  -446.5889 C1            1 RES     
   14901 N4         623.4008  -689.2515  -445.2926 N4            1 RES     
   14902 S2         622.3391  -688.0893  -444.7929 S2            1 RES     
   14903 N4         621.4264  -687.7897  -446.1369 N4            1 RES     
   14904 C1         621.9637  -688.6336  -447.0570 C1            1 RES     
   14905 C1         621.5425  -688.7433  -448.3998 C1            1 RES     
   14906 H5         623.7136  -691.0939  -449.4496 H5            1 RES     
   14907 C0         618.9263  -685.1169  -452.1247 C0            1 RES     
   14908 C0         618.1496  -684.2829  -453.1484 C0            1 RES     
   14909 C0         618.8050  -682.9706  -453.5896 C0            1 RES     
   14910 C0         619.0248  -681.9269  -452.4829 C0            1 RES     
   14911 C0         617.7905  -681.7199  -451.5812 C0            1 RES     
   14912 C0         617.9319  -680.4846  -450.6836 C0            1 RES     
   14913 C0         617.6139  -679.2018  -451.4678 C0            1 RES     
   14914 C0         617.8116  -677.9520  -450.6091 C0            1 RES     
   14915 C0         617.2786  -676.7145  -451.3378 C0            1 RES     
   14916 C0         617.6676  -675.3473  -450.7407 C0            1 RES     
   14917 C0         617.2779  -675.0518  -449.2785 C0            1 RES     
   14918 C0         618.2431  -675.6681  -448.2412 C0            1 RES     
   14919 C0         617.9245  -675.3362  -446.7697 C0            1 RES     
   14920 C0         618.3894  -673.9615  -446.2317 C0            1 RES     
   14921 C0         617.7311  -672.6937  -446.7959 C0            1 RES     
   14922 C0         616.2114  -672.6959  -446.6425 C0            1 RES     
   14923 H6         619.1502  -684.4688  -451.2510 H6            1 RES     
   14924 H6         619.8981  -685.4317  -452.5636 H6            1 RES     
   14925 H6         618.0396  -684.8783  -454.0534 H6            1 RES     
   14926 H6         617.1433  -684.0380  -452.7612 H6            1 RES     
   14927 H6         619.7718  -683.1692  -454.1008 H6            1 RES     
   14928 H6         618.1153  -682.5211  -454.3390 H6            1 RES     
   14929 H6         619.8787  -682.2240  -451.8362 H6            1 RES     
   14930 H6         619.3095  -680.9876  -453.0001 H6            1 RES     
   14931 H6         616.8537  -681.6306  -452.1736 H6            1 RES     
   14932 H6         617.6993  -682.6177  -450.9329 H6            1 RES     
   14933 H6         618.9457  -680.4609  -450.2261 H6            1 RES     
   14934 H6         617.1844  -680.5555  -449.8632 H6            1 RES     
   14935 H6         618.2555  -679.1086  -452.3684 H6            1 RES     
   14936 H6         616.5520  -679.2619  -451.7973 H6            1 RES     
   14937 H6         617.2378  -678.0778  -449.6686 H6            1 RES     
   14938 H6         618.8978  -677.8452  -450.3966 H6            1 RES     
   14939 H6         617.6709  -676.7116  -452.3790 H6            1 RES     
   14940 H6         616.1700  -676.7973  -451.3950 H6            1 RES     
   14941 H6         618.7563  -675.1645  -450.8685 H6            1 RES     
   14942 H6         617.1366  -674.6041  -451.3769 H6            1 RES     
   14943 H6         616.2230  -675.3468  -449.0901 H6            1 RES     
   14944 H6         617.3372  -673.9604  -449.1885 H6            1 RES     
   14945 H6         618.1726  -676.7624  -448.3110 H6            1 RES     
   14946 H6         619.2969  -675.3902  -448.4599 H6            1 RES     
   14947 H6         618.5005  -676.0716  -446.1641 H6            1 RES     
   14948 H6         616.8510  -675.5231  -446.5560 H6            1 RES     
   14949 H6         618.1971  -673.9681  -445.1361 H6            1 RES     
   14950 H6         619.4891  -673.8744  -446.3727 H6            1 RES     
   14951 H6         618.1369  -671.8233  -446.2363 H6            1 RES     
   14952 H6         618.0180  -672.5314  -447.8491 H6            1 RES     
   14953 H6         615.9337  -672.8036  -445.5726 H6            1 RES     
   14954 H6         615.8005  -671.7376  -447.0234 H6            1 RES     
   14955 H6         615.7550  -673.5232  -447.2231 H6            1 RES     
   14956 C0         617.8704  -687.4673  -452.7025 C0            1 RES     
   14957 C0         616.5796  -687.2795  -453.5371 C0            1 RES     
   14958 C0         616.3606  -688.2225  -454.7401 C0            1 RES     
   14959 C0         617.1586  -687.9320  -456.0354 C0            1 RES     
   14960 C0         617.0576  -686.4573  -456.4777 C0            1 RES     
   14961 C0         617.4719  -686.1761  -457.9293 C0            1 RES     
   14962 C0         616.3460  -686.5270  -458.9158 C0            1 RES     
   14963 C0         616.7214  -686.1583  -460.3587 C0            1 RES     
   14964 C0         615.5162  -686.3426  -461.2904 C0            1 RES     
   14965 C0         615.7927  -686.2772  -462.8081 C0            1 RES     
   14966 C0         616.3303  -684.9631  -463.4136 C0            1 RES     
   14967 C0         617.8443  -684.7459  -463.2146 C0            1 RES     
   14968 C0         618.4197  -683.4867  -463.8974 C0            1 RES     
   14969 C0         618.7410  -683.5759  -465.4102 C0            1 RES     
   14970 C0         617.5770  -683.7210  -466.4026 C0            1 RES     
   14971 C0         616.5513  -682.5956  -466.2835 C0            1 RES     
   14972 H6         618.7657  -687.5270  -453.3584 H6            1 RES     
   14973 H6         617.7558  -688.4635  -452.2192 H6            1 RES     
   14974 H6         615.7425  -687.4947  -452.8413 H6            1 RES     
   14975 H6         616.4456  -686.2506  -453.8966 H6            1 RES     
   14976 H6         616.4916  -689.2827  -454.4345 H6            1 RES     
   14977 H6         615.2921  -688.0944  -455.0247 H6            1 RES     
   14978 H6         618.2310  -688.2023  -455.9240 H6            1 RES     
   14979 H6         616.7217  -688.5900  -456.8161 H6            1 RES     
   14980 H6         616.0323  -686.0535  -456.3257 H6            1 RES     
   14981 H6         617.7518  -685.9000  -455.8348 H6            1 RES     
   14982 H6         618.4275  -686.6899  -458.1732 H6            1 RES     
   14983 H6         617.6368  -685.0804  -458.0195 H6            1 RES     
   14984 H6         616.1001  -687.6082  -458.8618 H6            1 RES     
   14985 H6         615.4429  -685.9428  -458.6265 H6            1 RES     
   14986 H6         617.0183  -685.0919  -460.3734 H6            1 RES     
   14987 H6         617.5672  -686.8021  -460.6822 H6            1 RES     
   14988 H6         615.0920  -687.3547  -461.1083 H6            1 RES     
   14989 H6         614.7362  -685.5961  -461.0197 H6            1 RES     
   14990 H6         616.4498  -687.1186  -463.1170 H6            1 RES     
   14991 H6         614.7986  -686.4523  -463.2777 H6            1 RES     
   14992 H6         615.7406  -684.0952  -463.0467 H6            1 RES     
   14993 H6         616.1419  -685.0558  -464.4905 H6            1 RES     
   14994 H6         618.0271  -684.6053  -462.1400 H6            1 RES     
   14995 H6         618.4244  -685.6358  -463.5413 H6            1 RES     
   14996 H6         619.4118  -683.3158  -463.4223 H6            1 RES     
   14997 H6         617.7983  -682.5977  -463.6589 H6            1 RES     
   14998 H6         619.2780  -682.6388  -465.6772 H6            1 RES     
   14999 H6         619.4474  -684.4183  -465.5771 H6            1 RES     
   15000 H6         618.0025  -683.6953  -467.4296 H6            1 RES     
   15001 H6         617.0897  -684.7066  -466.3055 H6            1 RES     
   15002 H6         617.0414  -681.6112  -466.4396 H6            1 RES     
   15003 H6         615.7657  -682.7286  -467.0567 H6            1 RES     
   15004 H6         616.0637  -682.6079  -465.2875 H6            1 RES     
   15005 C0         628.3553  -692.8148  -447.3638 C0            1 RES     
   15006 C1         626.9988  -692.2070  -446.9501 C1            1 RES     
   15007 C1         626.4783  -692.6976  -445.6574 C1            1 RES     
   15008 S2         624.6883  -692.7350  -445.8374 S2            1 RES     
   15009 C1         624.9597  -691.2926  -446.8909 C1            1 RES     
   15010 C1         626.1900  -691.3204  -447.5204 C1            1 RES     
   15011 C1         627.2937  -693.8938  -445.5082 C1            1 RES     
   15012 C1         628.3390  -693.9825  -446.3812 C1            1 RES     
   15013 C1         629.1469  -695.1100  -446.1475 C1            1 RES     
   15014 C1         628.6953  -695.8498  -445.0284 C1            1 RES     
   15015 S2         627.3224  -695.0976  -444.3696 S2            1 RES     
   15016 H3         626.3789  -690.7734  -448.4295 H3            1 RES     
   15017 H3         630.0160  -695.3668  -446.7402 H3            1 RES     
   15018 N4         630.0643  -697.8803  -445.2930 N4            1 RES     
   15019 C1         630.5823  -699.0766  -444.8845 C1            1 RES     
   15020 C1         630.3419  -699.5593  -443.5923 C1            1 RES     
   15021 C1         629.5658  -698.7902  -442.7343 C1            1 RES     
   15022 N4         629.2844  -699.1459  -441.4570 N4            1 RES     
   15023 S2         628.3624  -697.8790  -440.9350 S2            1 RES     
   15024 N4         628.2815  -696.8855  -442.2525 N4            1 RES     
   15025 C1         629.0174  -697.5561  -443.1779 C1            1 RES     
   15026 C1         629.2772  -697.1039  -444.4896 C1            1 RES     
   15027 H5         631.1811  -699.6635  -445.5689 H5            1 RES     
   15028 C0         629.5232  -691.8493  -446.9793 C0            1 RES     
   15029 C0         629.5098  -690.5278  -447.7541 C0            1 RES     
   15030 C0         630.5375  -689.4781  -447.3201 C0            1 RES     
   15031 C0         630.3998  -688.9624  -445.8787 C0            1 RES     
   15032 C0         628.9519  -688.5945  -445.4946 C0            1 RES     
   15033 C0         628.8843  -687.8193  -444.1733 C0            1 RES     
   15034 C0         629.2366  -686.3393  -444.3908 C0            1 RES     
   15035 C0         629.2386  -685.5605  -443.0749 C0            1 RES     
   15036 C0         629.3714  -684.0584  -443.3444 C0            1 RES     
   15037 C0         629.6852  -683.1687  -442.1249 C0            1 RES     
   15038 C0         628.7099  -683.1959  -440.9311 C0            1 RES     
   15039 C0         628.9207  -684.3980  -439.9834 C0            1 RES     
   15040 C0         628.0089  -684.4217  -438.7405 C0            1 RES     
   15041 C0         628.4175  -683.5357  -437.5390 C0            1 RES     
   15042 C0         628.3702  -682.0096  -437.7052 C0            1 RES     
   15043 C0         626.9948  -681.5019  -438.1338 C0            1 RES     
   15044 H6         629.4235  -691.6159  -445.8981 H6            1 RES     
   15045 H6         630.5042  -692.3529  -447.1222 H6            1 RES     
   15046 H6         629.7323  -690.7470  -448.7971 H6            1 RES     
   15047 H6         628.5105  -690.0581  -447.6964 H6            1 RES     
   15048 H6         631.5713  -689.8560  -447.4749 H6            1 RES     
   15049 H6         630.3926  -688.6087  -448.0001 H6            1 RES     
   15050 H6         630.7641  -689.7270  -445.1587 H6            1 RES     
   15051 H6         631.0738  -688.0844  -445.8020 H6            1 RES     
   15052 H6         628.4501  -687.9991  -446.2886 H6            1 RES     
   15053 H6         628.3891  -689.5449  -445.3745 H6            1 RES     
   15054 H6         629.5385  -688.3032  -443.4145 H6            1 RES     
   15055 H6         627.8380  -687.8506  -443.7974 H6            1 RES     
   15056 H6         630.2348  -686.2261  -444.8622 H6            1 RES     
   15057 H6         628.4729  -685.9077  -445.0766 H6            1 RES     
   15058 H6         628.2731  -685.7390  -442.5597 H6            1 RES     
   15059 H6         630.0881  -685.9253  -442.4570 H6            1 RES     
   15060 H6         630.2057  -683.8926  -444.0615 H6            1 RES     
   15061 H6         628.4332  -683.7100  -443.8316 H6            1 RES     
   15062 H6         630.7144  -683.3671  -441.7554 H6            1 RES     
   15063 H6         629.6793  -682.1312  -442.5281 H6            1 RES     
   15064 H6         627.6589  -683.1269  -441.2861 H6            1 RES     
   15065 H6         628.9301  -682.2802  -440.3693 H6            1 RES     
   15066 H6         628.6807  -685.3182  -440.5339 H6            1 RES     
   15067 H6         629.9819  -684.4729  -439.6612 H6            1 RES     
   15068 H6         628.0696  -685.4599  -438.3429 H6            1 RES     
   15069 H6         626.9510  -684.2578  -439.0352 H6            1 RES     
   15070 H6         627.7277  -683.7939  -436.7055 H6            1 RES     
   15071 H6         629.4437  -683.8188  -437.2172 H6            1 RES     
   15072 H6         628.6196  -681.5537  -436.7227 H6            1 RES     
   15073 H6         629.1510  -681.6609  -438.4028 H6            1 RES     
   15074 H6         626.2245  -681.8106  -437.3957 H6            1 RES     
   15075 H6         627.0116  -680.3933  -438.1901 H6            1 RES     
   15076 H6         626.7205  -681.8950  -439.1338 H6            1 RES     
   15077 C0         628.4376  -693.3696  -448.8458 C0            1 RES     
   15078 C0         627.7677  -692.4868  -449.9273 C0            1 RES     
   15079 C0         627.9717  -692.8856  -451.4050 C0            1 RES     
   15080 C0         629.3310  -692.5390  -452.0617 C0            1 RES     
   15081 C0         629.7430  -691.0694  -451.8353 C0            1 RES     
   15082 C0         630.8466  -690.5449  -452.7654 C0            1 RES     
   15083 C0         630.2856  -690.1534  -454.1424 C0            1 RES     
   15084 C0         631.3687  -689.5400  -455.0421 C0            1 RES     
   15085 C0         630.7461  -688.9885  -456.3314 C0            1 RES     
   15086 C0         631.7212  -688.5849  -457.4585 C0            1 RES     
   15087 C0         632.7269  -687.4423  -457.2027 C0            1 RES     
   15088 C0         633.9708  -687.8617  -456.3928 C0            1 RES     
   15089 C0         635.0351  -686.7586  -456.2105 C0            1 RES     
   15090 C0         636.0162  -686.5094  -457.3833 C0            1 RES     
   15091 C0         635.4655  -685.9204  -458.6911 C0            1 RES     
   15092 C0         634.7492  -684.5870  -458.4867 C0            1 RES     
   15093 H6         629.5065  -693.5561  -449.0872 H6            1 RES     
   15094 H6         627.9146  -694.3499  -448.9126 H6            1 RES     
   15095 H6         626.6762  -692.5761  -449.7488 H6            1 RES     
   15096 H6         628.0251  -691.4233  -449.8346 H6            1 RES     
   15097 H6         627.7315  -693.9597  -451.5567 H6            1 RES     
   15098 H6         627.2176  -692.2986  -451.9759 H6            1 RES     
   15099 H6         630.1436  -693.2020  -451.6935 H6            1 RES     
   15100 H6         629.2020  -692.7307  -453.1480 H6            1 RES     
   15101 H6         628.8708  -690.3833  -451.9114 H6            1 RES     
   15102 H6         630.1387  -691.0199  -450.8123 H6            1 RES     
   15103 H6         631.6816  -691.2758  -452.8377 H6            1 RES     
   15104 H6         631.2442  -689.6109  -452.3123 H6            1 RES     
   15105 H6         629.8387  -691.0345  -454.6487 H6            1 RES     
   15106 H6         629.4876  -689.3929  -453.9833 H6            1 RES     
   15107 H6         631.8377  -688.7023  -454.4908 H6            1 RES     
   15108 H6         632.1224  -690.3222  -455.2757 H6            1 RES     
   15109 H6         630.0987  -689.7811  -456.7674 H6            1 RES     
   15110 H6         630.0939  -688.1241  -456.0736 H6            1 RES     
   15111 H6         632.2679  -689.4770  -457.8333 H6            1 RES     
   15112 H6         631.0603  -688.2384  -458.2846 H6            1 RES     
   15113 H6         632.2154  -686.5684  -456.7439 H6            1 RES     
   15114 H6         633.0624  -687.1383  -458.2022 H6            1 RES     
   15115 H6         633.6410  -688.1207  -455.3769 H6            1 RES     
   15116 H6         634.4506  -688.7633  -456.8311 H6            1 RES     
   15117 H6         635.6909  -687.1098  -455.3824 H6            1 RES     
   15118 H6         634.5620  -685.8168  -455.8606 H6            1 RES     
   15119 H6         636.7862  -685.7992  -457.0083 H6            1 RES     
   15120 H6         636.5370  -687.4621  -457.6230 H6            1 RES     
   15121 H6         636.3259  -685.7507  -459.3747 H6            1 RES     
   15122 H6         634.8099  -686.6416  -459.2091 H6            1 RES     
   15123 H6         635.4352  -683.8506  -458.0169 H6            1 RES     
   15124 H6         634.4201  -684.1901  -459.4699 H6            1 RES     
   15125 H6         633.8529  -684.7132  -457.8457 H6            1 RES     
   15126 C0         633.8243  -703.4920  -442.8832 C0            1 RES     
   15127 C1         632.5831  -702.5817  -442.7765 C1            1 RES     
   15128 C1         631.4237  -703.2056  -442.1062 C1            1 RES     
   15129 S2         629.9694  -702.5322  -442.9244 S2            1 RES     
   15130 C1         630.9863  -701.0472  -443.0816 C1            1 RES     
   15131 C1         632.3357  -701.3356  -443.1654 C1            1 RES     
   15132 C1         631.8179  -704.6037  -442.1956 C1            1 RES     
   15133 C1         633.1133  -704.8067  -442.5743 C1            1 RES     
   15134 C1         633.4740  -706.1662  -442.5671 C1            1 RES     
   15135 C1         632.4082  -706.9842  -442.1216 C1            1 RES     
   15136 S2         631.0639  -706.0126  -441.7565 S2            1 RES     
   15137 H3         633.0385  -700.6538  -443.6153 H3            1 RES     
   15138 H3         634.4518  -706.5358  -442.8499 H3            1 RES     
   15139 N4         633.3120  -709.1994  -442.7073 N4            1 RES     
   15140 C1         633.3275  -710.5654  -442.6906 C1            1 RES     
   15141 C1         632.4099  -711.2844  -441.9151 C1            1 RES     
   15142 C1         631.4847  -710.5744  -441.1602 C1            1 RES     
   15143 N4         630.5637  -711.1618  -440.3576 N4            1 RES     
   15144 S2         629.7711  -709.8599  -439.7216 S2            1 RES     
   15145 N4         630.5251  -708.5651  -440.4174 N4            1 RES     
   15146 C1         631.4673  -709.1536  -441.2008 C1            1 RES     
   15147 C1         632.4049  -708.4629  -441.9984 C1            1 RES     
   15148 H5         634.0533  -711.1008  -443.2889 H5            1 RES     
   15149 C0         634.8288  -703.1788  -441.7269 C0            1 RES     
   15150 C0         635.4449  -701.7787  -441.8090 C0            1 RES     
   15151 C0         636.3220  -701.3545  -440.6269 C0            1 RES     
   15152 C0         635.6153  -701.2732  -439.2644 C0            1 RES     
   15153 C0         634.2632  -700.5327  -439.3180 C0            1 RES     
   15154 C0         633.7245  -700.2123  -437.9185 C0            1 RES     
   15155 C0         634.4182  -698.9698  -437.3385 C0            1 RES     
   15156 C0         633.9425  -698.6701  -435.9164 C0            1 RES     
   15157 C0         634.4774  -697.3126  -435.4501 C0            1 RES     
   15158 C0         634.3364  -697.0004  -433.9469 C0            1 RES     
   15159 C0         632.9250  -697.0198  -433.3265 C0            1 RES     
   15160 C0         632.4184  -698.4374  -432.9783 C0            1 RES     
   15161 C0         631.0387  -698.4915  -432.2926 C0            1 RES     
   15162 C0         630.9867  -698.2118  -430.7713 C0            1 RES     
   15163 C0         631.3226  -696.7978  -430.2749 C0            1 RES     
   15164 C0         630.4484  -695.7211  -430.9149 C0            1 RES     
   15165 H6         634.2719  -703.2546  -440.7690 H6            1 RES     
   15166 H6         635.6392  -703.9397  -441.7020 H6            1 RES     
   15167 H6         636.0915  -701.7465  -442.6845 H6            1 RES     
   15168 H6         634.6529  -701.0160  -441.9256 H6            1 RES     
   15169 H6         637.2078  -702.0201  -440.5390 H6            1 RES     
   15170 H6         636.6922  -700.3336  -440.8716 H6            1 RES     
   15171 H6         635.4342  -702.2934  -438.8618 H6            1 RES     
   15172 H6         636.3268  -700.7664  -438.5804 H6            1 RES     
   15173 H6         634.3289  -699.5899  -439.9041 H6            1 RES     
   15174 H6         633.5387  -701.2020  -439.8295 H6            1 RES     
   15175 H6         633.8278  -701.1020  -437.2583 H6            1 RES     
   15176 H6         632.6425  -699.9687  -438.0026 H6            1 RES     
   15177 H6         635.5206  -699.0955  -437.3159 H6            1 RES     
   15178 H6         634.1761  -698.1079  -438.0005 H6            1 RES     
   15179 H6         632.8345  -698.6270  -435.9187 H6            1 RES     
   15180 H6         634.3036  -699.4844  -435.2508 H6            1 RES     
   15181 H6         635.5671  -697.2595  -435.6683 H6            1 RES     
   15182 H6         633.9746  -696.5189  -436.0470 H6            1 RES     
   15183 H6         635.0025  -697.6601  -433.3501 H6            1 RES     
   15184 H6         634.7260  -695.9632  -433.8399 H6            1 RES     
   15185 H6         632.2080  -696.4706  -433.9743 H6            1 RES     
   15186 H6         633.0232  -696.4568  -432.3905 H6            1 RES     
   15187 H6         632.2969  -699.0005  -433.9141 H6            1 RES     
   15188 H6         633.1587  -698.9859  -432.3563 H6            1 RES     
   15189 H6         630.6985  -699.5476  -432.3845 H6            1 RES     
   15190 H6         630.3054  -697.8738  -432.8526 H6            1 RES     
   15191 H6         629.9471  -698.4334  -430.4434 H6            1 RES     
   15192 H6         631.6566  -698.9312  -430.2513 H6            1 RES     
   15193 H6         631.1553  -696.7755  -429.1763 H6            1 RES     
   15194 H6         632.3928  -696.5695  -430.4184 H6            1 RES     
   15195 H6         629.3758  -695.9298  -430.7169 H6            1 RES     
   15196 H6         630.7055  -694.7315  -430.4823 H6            1 RES     
   15197 H6         630.6151  -695.6737  -432.0102 H6            1 RES     
   15198 C0         634.4954  -703.5757  -444.3162 C0            1 RES     
   15199 C0         634.6105  -702.2331  -445.0790 C0            1 RES     
   15200 C0         635.4141  -702.2247  -446.3975 C0            1 RES     
   15201 C0         636.9597  -702.2215  -446.2970 C0            1 RES     
   15202 C0         637.4905  -701.1407  -445.3322 C0            1 RES     
   15203 C0         638.9823  -700.8065  -445.4753 C0            1 RES     
   15204 C0         639.2364  -699.8505  -446.6524 C0            1 RES     
   15205 C0         640.7136  -699.4393  -446.7399 C0            1 RES     
   15206 C0         640.9042  -698.3453  -447.7988 C0            1 RES     
   15207 C0         642.3567  -698.0130  -448.2034 C0            1 RES     
   15208 C0         643.3182  -697.4463  -447.1371 C0            1 RES     
   15209 C0         643.9147  -698.5092  -446.1919 C0            1 RES     
   15210 C0         644.9538  -697.9773  -445.1820 C0            1 RES     
   15211 C0         646.4033  -697.7700  -445.6880 C0            1 RES     
   15212 C0         646.6715  -696.6638  -446.7200 C0            1 RES     
   15213 C0         646.2198  -695.2848  -446.2433 C0            1 RES     
   15214 H6         635.4899  -704.0596  -444.2055 H6            1 RES     
   15215 H6         633.8886  -704.2309  -444.9807 H6            1 RES     
   15216 H6         633.5730  -701.9661  -445.3677 H6            1 RES     
   15217 H6         634.9937  -701.4150  -444.4546 H6            1 RES     
   15218 H6         635.0718  -703.0410  -447.0690 H6            1 RES     
   15219 H6         635.1554  -701.2629  -446.8946 H6            1 RES     
   15220 H6         637.3506  -703.2122  -445.9786 H6            1 RES     
   15221 H6         637.3312  -702.0240  -447.3248 H6            1 RES     
   15222 H6         636.9134  -700.1938  -445.4208 H6            1 RES     
   15223 H6         637.3499  -701.5426  -444.3201 H6            1 RES     
   15224 H6         639.5899  -701.7355  -445.5423 H6            1 RES     
   15225 H6         639.2881  -700.2600  -444.5567 H6            1 RES     
   15226 H6         638.9242  -700.3164  -447.6105 H6            1 RES     
   15227 H6         638.6249  -698.9343  -446.4875 H6            1 RES     
   15228 H6         641.0147  -699.0329  -445.7551 H6            1 RES     
   15229 H6         641.3186  -700.3365  -446.9919 H6            1 RES     
   15230 H6         640.4039  -698.6807  -448.7340 H6            1 RES     
   15231 H6         640.3906  -697.4197  -447.4546 H6            1 RES     
   15232 H6         642.8305  -698.8901  -448.6946 H6            1 RES     
   15233 H6         642.2530  -697.2225  -448.9803 H6            1 RES     
   15234 H6         642.8308  -696.6228  -446.5713 H6            1 RES     
   15235 H6         644.1425  -697.0060  -447.7120 H6            1 RES     
   15236 H6         643.0961  -698.9167  -445.5821 H6            1 RES     
   15237 H6         644.3597  -699.3517  -446.7643 H6            1 RES     
   15238 H6         645.0512  -698.7706  -444.4073 H6            1 RES     
   15239 H6         644.5646  -697.0757  -444.6633 H6            1 RES     
   15240 H6         647.0217  -697.5342  -444.7937 H6            1 RES     
   15241 H6         646.7785  -698.7310  -446.1028 H6            1 RES     
   15242 H6         647.7683  -696.6267  -446.8993 H6            1 RES     
   15243 H6         646.2173  -696.9089  -447.6956 H6            1 RES     
   15244 H6         646.7261  -695.0231  -445.2900 H6            1 RES     
   15245 H6         646.4853  -694.5246  -447.0077 H6            1 RES     
   15246 H6         645.1212  -695.2577  -446.0938 H6            1 RES     
   15247 C0         634.2879  -716.2378  -441.7354 C0            1 RES     
   15248 C1         633.3510  -715.0122  -441.7117 C1            1 RES     
   15249 C1         631.9161  -715.3373  -441.8463 C1            1 RES     
   15250 S2         631.1928  -713.9707  -442.7668 S2            1 RES     
   15251 C1         632.4280  -712.9841  -441.8921 C1            1 RES     
   15252 C1         633.5676  -713.7067  -441.5921 C1            1 RES     
   15253 C1         632.0244  -716.6897  -442.3730 C1            1 RES     
   15254 C1         633.2754  -717.2303  -442.3002 C1            1 RES     
   15255 C1         633.3163  -718.5649  -442.7427 C1            1 RES     
   15256 C1         632.0312  -719.0294  -443.1120 C1            1 RES     
   15257 S2         630.8944  -717.7880  -442.8859 S2            1 RES     
   15258 H3         634.5174  -713.2287  -441.4169 H3            1 RES     
   15259 H3         634.2170  -719.1650  -442.7776 H3            1 RES     
   15260 N4         632.6541  -721.1434  -444.2120 N4            1 RES     
   15261 C1         632.3935  -722.3604  -444.7754 C1            1 RES     
   15262 C1         631.0968  -722.8887  -444.7754 C1            1 RES     
   15263 C1         630.0818  -722.1462  -444.1853 C1            1 RES     
   15264 N4         628.7949  -722.5651  -444.1080 N4            1 RES     
   15265 S2         628.0654  -721.3131  -443.3155 S2            1 RES     
   15266 N4         629.2959  -720.2399  -443.0636 N4            1 RES     
   15267 C1         630.3628  -720.8730  -443.6191 C1            1 RES     
   15268 C1         631.6816  -720.3704  -443.6423 C1            1 RES     
   15269 H5         633.1969  -722.9221  -445.2341 H5            1 RES     
   15270 C0         634.6563  -716.6684  -440.2784 C0            1 RES     
   15271 C0         635.4959  -715.6325  -439.5241 C0            1 RES     
   15272 C0         635.7644  -715.9261  -438.0448 C0            1 RES     
   15273 C0         634.5236  -715.9973  -437.1405 C0            1 RES     
   15274 C0         633.5353  -714.8339  -437.3623 C0            1 RES     
   15275 C0         632.4672  -714.7664  -436.2642 C0            1 RES     
   15276 C0         633.0259  -714.0930  -435.0009 C0            1 RES     
   15277 C0         631.9969  -714.0733  -433.8698 C0            1 RES     
   15278 C0         632.4964  -713.2069  -432.7095 C0            1 RES     
   15279 C0         631.7177  -713.3222  -431.3839 C0            1 RES     
   15280 C0         630.2085  -713.0068  -431.3938 C0            1 RES     
   15281 C0         629.3322  -714.1764  -431.8955 C0            1 RES     
   15282 C0         627.8122  -713.9223  -431.8547 C0            1 RES     
   15283 C0         627.0947  -714.1042  -430.4954 C0            1 RES     
   15284 C0         627.4204  -713.1241  -429.3587 C0            1 RES     
   15285 C0         627.1872  -711.6656  -429.7479 C0            1 RES     
   15286 H6         633.7066  -716.8140  -439.7212 H6            1 RES     
   15287 H6         635.1905  -717.6435  -440.2866 H6            1 RES     
   15288 H6         636.4744  -715.5824  -439.9987 H6            1 RES     
   15289 H6         635.0217  -714.6355  -439.5841 H6            1 RES     
   15290 H6         636.3516  -716.8632  -437.9328 H6            1 RES     
   15291 H6         636.3972  -715.0875  -437.6765 H6            1 RES     
   15292 H6         633.9775  -716.9509  -437.3088 H6            1 RES     
   15293 H6         634.9046  -716.0109  -436.0986 H6            1 RES     
   15294 H6         634.0554  -713.8528  -437.4211 H6            1 RES     
   15295 H6         633.0291  -715.0100  -438.3356 H6            1 RES     
   15296 H6         632.0669  -715.7842  -436.0598 H6            1 RES     
   15297 H6         631.6282  -714.1315  -436.6247 H6            1 RES     
   15298 H6         633.9348  -714.6131  -434.6335 H6            1 RES     
   15299 H6         633.3029  -713.0485  -435.2693 H6            1 RES     
   15300 H6         631.0575  -713.6300  -434.2577 H6            1 RES     
   15301 H6         631.8296  -715.1202  -433.5347 H6            1 RES     
   15302 H6         633.5443  -713.4936  -432.4698 H6            1 RES     
   15303 H6         632.5056  -712.1466  -433.0483 H6            1 RES     
   15304 H6         631.8745  -714.3238  -430.9284 H6            1 RES     
   15305 H6         632.2021  -712.5799  -430.7106 H6            1 RES     
   15306 H6         630.0110  -712.0692  -431.9573 H6            1 RES     
   15307 H6         629.9547  -712.8210  -430.3433 H6            1 RES     
   15308 H6         629.5660  -714.3538  -432.9544 H6            1 RES     
   15309 H6         629.5622  -715.1142  -431.3446 H6            1 RES     
   15310 H6         627.3592  -714.7038  -432.5054 H6            1 RES     
   15311 H6         627.5721  -712.9441  -432.3221 H6            1 RES     
   15312 H6         626.0045  -714.0169  -430.6981 H6            1 RES     
   15313 H6         627.2799  -715.1372  -430.1276 H6            1 RES     
   15314 H6         626.7562  -713.3667  -428.5011 H6            1 RES     
   15315 H6         628.4500  -713.2709  -428.9895 H6            1 RES     
   15316 H6         626.1333  -711.5166  -430.0646 H6            1 RES     
   15317 H6         627.3932  -711.0128  -428.8739 H6            1 RES     
   15318 H6         627.8629  -711.3621  -430.5733 H6            1 RES     
   15319 C0         635.5315  -716.1349  -442.7120 C0            1 RES     
   15320 C0         636.2561  -714.7666  -442.7283 C0            1 RES     
   15321 C0         637.5764  -714.6643  -443.5225 C0            1 RES     
   15322 C0         638.8527  -715.2553  -442.8739 C0            1 RES     
   15323 C0         639.0564  -714.7785  -441.4207 C0            1 RES     
   15324 C0         640.4676  -714.9859  -440.8521 C0            1 RES     
   15325 C0         641.4341  -713.8878  -441.3255 C0            1 RES     
   15326 C0         642.8211  -714.0381  -440.6834 C0            1 RES     
   15327 C0         643.7035  -712.8297  -441.0232 C0            1 RES     
   15328 C0         645.2057  -712.9474  -440.6862 C0            1 RES     
   15329 C0         645.6297  -713.1118  -439.2111 C0            1 RES     
   15330 C0         645.4818  -714.5466  -438.6649 C0            1 RES     
   15331 C0         645.9925  -714.7534  -437.2229 C0            1 RES     
   15332 C0         647.5162  -714.9505  -437.0243 C0            1 RES     
   15333 C0         648.4546  -713.7677  -437.3083 C0            1 RES     
   15334 C0         648.1083  -712.5251  -436.4903 C0            1 RES     
   15335 H6         636.2362  -716.9579  -442.4639 H6            1 RES     
   15336 H6         635.2019  -716.2964  -443.7629 H6            1 RES     
   15337 H6         635.5575  -714.0669  -443.2320 H6            1 RES     
   15338 H6         636.4450  -714.3677  -441.7228 H6            1 RES     
   15339 H6         637.4454  -715.0626  -444.5515 H6            1 RES     
   15340 H6         637.7797  -713.5741  -443.6179 H6            1 RES     
   15341 H6         638.8424  -716.3667  -442.8905 H6            1 RES     
   15342 H6         639.7007  -714.9139  -443.5046 H6            1 RES     
   15343 H6         638.7888  -713.7055  -441.3006 H6            1 RES     
   15344 H6         638.3739  -715.3801  -440.8060 H6            1 RES     
   15345 H6         640.8391  -716.0085  -441.0822 H6            1 RES     
   15346 H6         640.3967  -714.8853  -439.7472 H6            1 RES     
   15347 H6         641.5340  -713.9032  -442.4310 H6            1 RES     
   15348 H6         641.0098  -712.9039  -441.0213 H6            1 RES     
   15349 H6         642.6873  -714.0790  -439.5852 H6            1 RES     
   15350 H6         643.2851  -714.9772  -441.0539 H6            1 RES     
   15351 H6         643.6568  -712.6679  -442.1228 H6            1 RES     
   15352 H6         643.2792  -711.9260  -440.5309 H6            1 RES     
   15353 H6         645.6756  -713.7504  -441.2940 H6            1 RES     
   15354 H6         645.6422  -711.9826  -441.0296 H6            1 RES     
   15355 H6         645.1021  -712.3731  -438.5694 H6            1 RES     
   15356 H6         646.6963  -712.8546  -439.1982 H6            1 RES     
   15357 H6         644.4099  -714.7872  -438.6329 H6            1 RES     
   15358 H6         645.9725  -715.2846  -439.3355 H6            1 RES     
   15359 H6         645.5511  -715.7178  -436.8848 H6            1 RES     
   15360 H6         645.5866  -713.9678  -436.5511 H6            1 RES     
   15361 H6         647.6642  -715.2314  -435.9579 H6            1 RES     
   15362 H6         647.8488  -715.8142  -437.6406 H6            1 RES     
   15363 H6         649.4869  -714.0825  -437.0406 H6            1 RES     
   15364 H6         648.4843  -713.5311  -438.3860 H6            1 RES     
   15365 H6         648.1371  -712.7595  -435.4050 H6            1 RES     
   15366 H6         648.8491  -711.7257  -436.7015 H6            1 RES     
   15367 H6         647.1011  -712.1442  -436.7559 H6            1 RES     
   15368 C0         631.6552  -728.0021  -446.0548 C0            1 RES     
   15369 C1         631.0801  -726.5846  -445.8542 C1            1 RES     
   15370 C1         629.8522  -726.3083  -446.6280 C1            1 RES     
   15371 S2         629.9388  -724.5663  -447.0705 S2            1 RES     
   15372 C1         630.7705  -724.4033  -445.4750 C1            1 RES     
   15373 C1         631.4625  -725.5459  -445.1192 C1            1 RES     
   15374 C1         629.9334  -727.3872  -447.6013 C1            1 RES     
   15375 C1         630.8648  -728.3428  -447.3152 C1            1 RES     
   15376 C1         630.8517  -729.4061  -448.2359 C1            1 RES     
   15377 C1         629.8371  -729.2386  -449.2087 C1            1 RES     
   15378 S2         628.9971  -727.7937  -448.9068 S2            1 RES     
   15379 H3         632.2852  -725.5220  -444.4236 H3            1 RES     
   15380 H3         631.5229  -730.2547  -448.1922 H3            1 RES     
   15381 N4         630.4851  -731.0092  -450.7937 N4            1 RES     
   15382 C1         630.2943  -731.8231  -451.8742 C1            1 RES     
   15383 C1         629.0809  -731.8163  -452.5728 C1            1 RES     
   15384 C1         628.0740  -730.9636  -452.1382 C1            1 RES     
   15385 N4         626.8533  -730.8866  -452.7226 N4            1 RES     
   15386 S2         626.0934  -729.7479  -451.7988 S2            1 RES     
   15387 N4         627.2357  -729.3234  -450.6834 N4            1 RES     
   15388 C1         628.2918  -730.1085  -451.0238 C1            1 RES     
   15389 C1         629.5302  -730.1393  -450.3472 C1            1 RES     
   15390 H5         631.0924  -732.4775  -452.2003 H5            1 RES     
   15391 C0         631.1903  -728.9459  -444.8984 C0            1 RES     
   15392 C0         631.7504  -728.5595  -443.5258 C0            1 RES     
   15393 C0         631.2160  -729.3524  -442.3290 C0            1 RES     
   15394 C0         629.7071  -729.2286  -442.0640 C0            1 RES     
   15395 C0         629.1932  -727.7750  -442.1118 C0            1 RES     
   15396 C0         627.7665  -727.6487  -441.5640 C0            1 RES     
   15397 C0         627.7721  -727.6298  -440.0274 C0            1 RES     
   15398 C0         626.3539  -727.5697  -439.4586 C0            1 RES     
   15399 C0         626.3956  -727.3285  -437.9465 C0            1 RES     
   15400 C0         625.0724  -727.5363  -437.1829 C0            1 RES     
   15401 C0         623.8460  -726.7038  -437.6073 C0            1 RES     
   15402 C0         623.1077  -727.2693  -438.8413 C0            1 RES     
   15403 C0         621.8358  -726.5019  -439.2539 C0            1 RES     
   15404 C0         620.5360  -726.8009  -438.4685 C0            1 RES     
   15405 C0         620.4623  -726.3887  -436.9908 C0            1 RES     
   15406 C0         620.7326  -724.9009  -436.7757 C0            1 RES     
   15407 H6         630.0823  -728.8918  -444.8461 H6            1 RES     
   15408 H6         631.4619  -729.9997  -445.1264 H6            1 RES     
   15409 H6         632.8252  -728.7328  -443.5401 H6            1 RES     
   15410 H6         631.5671  -727.4882  -443.3232 H6            1 RES     
   15411 H6         631.4829  -730.4274  -442.4219 H6            1 RES     
   15412 H6         631.7451  -728.9512  -441.4355 H6            1 RES     
   15413 H6         629.1342  -729.8218  -442.8093 H6            1 RES     
   15414 H6         629.5326  -729.6863  -441.0685 H6            1 RES     
   15415 H6         629.8577  -727.0809  -441.5520 H6            1 RES     
   15416 H6         629.1907  -727.4591  -443.1771 H6            1 RES     
   15417 H6         627.1278  -728.4616  -441.9753 H6            1 RES     
   15418 H6         627.3439  -726.6755  -441.8976 H6            1 RES     
   15419 H6         628.2737  -728.5291  -439.6136 H6            1 RES     
   15420 H6         628.3410  -726.7294  -439.7028 H6            1 RES     
   15421 H6         625.8210  -726.7211  -439.9333 H6            1 RES     
   15422 H6         625.8466  -728.5320  -439.6891 H6            1 RES     
   15423 H6         627.1227  -728.0349  -437.4880 H6            1 RES     
   15424 H6         626.7719  -726.2957  -437.7710 H6            1 RES     
   15425 H6         624.7940  -728.6122  -437.1761 H6            1 RES     
   15426 H6         625.3100  -727.2557  -436.1323 H6            1 RES     
   15427 H6         624.1288  -725.6378  -437.7457 H6            1 RES     
   15428 H6         623.1626  -726.7564  -436.7513 H6            1 RES     
   15429 H6         623.7796  -727.1995  -439.7080 H6            1 RES     
   15430 H6         622.8588  -728.3436  -438.7017 H6            1 RES     
   15431 H6         621.6068  -726.8352  -440.2911 H6            1 RES     
   15432 H6         622.0441  -725.4127  -439.3109 H6            1 RES     
   15433 H6         619.7162  -726.2661  -438.9968 H6            1 RES     
   15434 H6         620.3177  -727.8891  -438.5373 H6            1 RES     
   15435 H6         619.4362  -726.6130  -436.6271 H6            1 RES     
   15436 H6         621.1391  -727.0030  -436.3722 H6            1 RES     
   15437 H6         620.0103  -724.2913  -437.3589 H6            1 RES     
   15438 H6         620.6182  -724.6568  -435.6988 H6            1 RES     
   15439 H6         621.7649  -724.6365  -437.0826 H6            1 RES     
   15440 C0         633.2072  -728.0777  -446.3652 C0            1 RES     
   15441 C0         634.1020  -727.1290  -445.5304 C0            1 RES     
   15442 C0         635.6324  -727.2868  -445.6622 C0            1 RES     
   15443 C0         636.3004  -728.4657  -444.9119 C0            1 RES     
   15444 C0         635.8729  -728.5468  -443.4315 C0            1 RES     
   15445 C0         636.7693  -729.4125  -442.5345 C0            1 RES     
   15446 C0         638.0372  -728.6561  -442.1049 C0            1 RES     
   15447 C0         638.8889  -729.4843  -441.1316 C0            1 RES     
   15448 C0         640.0423  -728.6391  -440.5751 C0            1 RES     
   15449 C0         641.1448  -729.3907  -439.7982 C0            1 RES     
   15450 C0         640.7707  -730.1249  -438.4930 C0            1 RES     
   15451 C0         640.1036  -731.4990  -438.7072 C0            1 RES     
   15452 C0         639.8114  -732.2926  -437.4159 C0            1 RES     
   15453 C0         640.9830  -733.0814  -436.7795 C0            1 RES     
   15454 C0         642.1528  -732.2957  -436.1673 C0            1 RES     
   15455 C0         641.7069  -731.3127  -435.0867 C0            1 RES     
   15456 H6         633.5320  -729.1349  -446.2539 H6            1 RES     
   15457 H6         633.3960  -727.7907  -447.4240 H6            1 RES     
   15458 H6         633.8807  -726.1077  -445.9037 H6            1 RES     
   15459 H6         633.8607  -727.1417  -444.4592 H6            1 RES     
   15460 H6         635.9346  -727.2878  -446.7314 H6            1 RES     
   15461 H6         636.0643  -726.3700  -445.2017 H6            1 RES     
   15462 H6         636.0832  -729.4386  -445.4036 H6            1 RES     
   15463 H6         637.3946  -728.2881  -444.9785 H6            1 RES     
   15464 H6         635.7951  -727.5367  -442.9720 H6            1 RES     
   15465 H6         634.8773  -729.0099  -443.4287 H6            1 RES     
   15466 H6         636.9985  -730.3836  -443.0256 H6            1 RES     
   15467 H6         636.1999  -729.6231  -441.6032 H6            1 RES     
   15468 H6         638.6483  -728.3808  -442.9899 H6            1 RES     
   15469 H6         637.7199  -727.7218  -441.5882 H6            1 RES     
   15470 H6         638.2412  -729.7949  -440.2891 H6            1 RES     
   15471 H6         639.2806  -730.3740  -441.6695 H6            1 RES     
   15472 H6         640.5595  -728.1554  -441.4331 H6            1 RES     
   15473 H6         639.6195  -727.8310  -439.9370 H6            1 RES     
   15474 H6         641.6816  -730.0925  -440.4724 H6            1 RES     
   15475 H6         641.8707  -728.5968  -439.5115 H6            1 RES     
   15476 H6         640.1558  -729.4688  -437.8394 H6            1 RES     
   15477 H6         641.7281  -730.2910  -437.9833 H6            1 RES     
   15478 H6         639.1234  -731.3295  -439.1745 H6            1 RES     
   15479 H6         640.7009  -732.1325  -439.3980 H6            1 RES     
   15480 H6         639.0839  -733.0827  -437.7086 H6            1 RES     
   15481 H6         639.2955  -731.6484  -436.6728 H6            1 RES     
   15482 H6         640.5453  -733.6974  -435.9629 H6            1 RES     
   15483 H6         641.3945  -733.7842  -437.5367 H6            1 RES     
   15484 H6         642.8476  -733.0295  -435.7034 H6            1 RES     
   15485 H6         642.7395  -731.7803  -436.9473 H6            1 RES     
   15486 H6         641.1671  -731.8497  -434.2781 H6            1 RES     
   15487 H6         642.5980  -730.8148  -434.6500 H6            1 RES     
   15488 H6         641.0455  -730.5303  -435.5115 H6            1 RES     
   15489 C0         629.1755  -736.1597  -455.6096 C0            1 RES     
   15490 C1         628.8629  -734.7568  -455.0486 C1            1 RES     
   15491 C1         628.2350  -733.8367  -456.0192 C1            1 RES     
   15492 S2         628.8598  -732.1995  -455.6105 S2            1 RES     
   15493 C1         628.8411  -732.8289  -453.9171 C1            1 RES     
   15494 C1         629.0412  -734.1954  -453.8577 C1            1 RES     
   15495 C1         628.5599  -734.5327  -457.2553 C1            1 RES     
   15496 C1         629.0349  -735.8010  -457.0864 C1            1 RES     
   15497 C1         629.2568  -736.4642  -458.3068 C1            1 RES     
   15498 C1         628.8856  -735.6595  -459.4105 C1            1 RES     
   15499 S2         628.3030  -734.1656  -458.8507 S2            1 RES     
   15500 H3         629.4180  -734.6795  -452.9716 H3            1 RES     
   15501 H3         629.6456  -737.4717  -458.3877 H3            1 RES     
   15502 N4         629.8536  -736.9932  -461.2411 N4            1 RES     
   15503 C1         630.0484  -737.3243  -462.5521 C1            1 RES     
   15504 C1         629.3445  -736.6697  -463.5702 C1            1 RES     
   15505 C1         628.4403  -735.6769  -463.2142 C1            1 RES     
   15506 N4         627.6892  -734.9912  -464.1103 N4            1 RES     
   15507 S2         626.8183  -733.9800  -463.1374 S2            1 RES     
   15508 N4         627.3460  -734.3505  -461.6164 N4            1 RES     
   15509 C1         628.2605  -735.3292  -461.8477 C1            1 RES     
   15510 C1         628.9917  -736.0078  -460.8490 C1            1 RES     
   15511 H5         630.7605  -738.0976  -462.8099 H5            1 RES     
   15512 C0         628.0408  -737.1640  -455.2250 C0            1 RES     
   15513 C0         627.9395  -737.4313  -453.7200 C0            1 RES     
   15514 C0         626.7552  -738.2888  -453.2629 C0            1 RES     
   15515 C0         625.3603  -737.7066  -453.5414 C0            1 RES     
   15516 C0         625.2260  -736.2211  -453.1483 C0            1 RES     
   15517 C0         623.7667  -735.7500  -453.1618 C0            1 RES     
   15518 C0         623.0406  -736.1878  -451.8802 C0            1 RES     
   15519 C0         621.5657  -735.7844  -451.9014 C0            1 RES     
   15520 C0         620.9254  -736.0317  -450.5320 C0            1 RES     
   15521 C0         619.3867  -735.9570  -450.4717 C0            1 RES     
   15522 C0         618.7013  -734.6491  -450.9153 C0            1 RES     
   15523 C0         618.5488  -734.5157  -452.4471 C0            1 RES     
   15524 C0         617.8060  -733.2522  -452.9253 C0            1 RES     
   15525 C0         616.2592  -733.2729  -452.8773 C0            1 RES     
   15526 C0         615.5698  -733.3170  -451.5056 C0            1 RES     
   15527 C0         615.9880  -732.1649  -450.5941 C0            1 RES     
   15528 H6         627.0773  -736.7271  -455.5630 H6            1 RES     
   15529 H6         628.1773  -738.1267  -455.7642 H6            1 RES     
   15530 H6         628.8331  -737.9725  -453.4135 H6            1 RES     
   15531 H6         627.8941  -736.4778  -453.1620 H6            1 RES     
   15532 H6         626.8190  -739.3084  -453.7011 H6            1 RES     
   15533 H6         626.8594  -738.3906  -452.1593 H6            1 RES     
   15534 H6         625.1105  -737.8020  -454.6204 H6            1 RES     
   15535 H6         624.6458  -738.3403  -452.9767 H6            1 RES     
   15536 H6         625.6625  -736.0155  -452.1464 H6            1 RES     
   15537 H6         625.7946  -735.6276  -453.8960 H6            1 RES     
   15538 H6         623.2581  -736.1137  -454.0821 H6            1 RES     
   15539 H6         623.7537  -734.6379  -453.1769 H6            1 RES     
   15540 H6         623.0973  -737.2869  -451.7385 H6            1 RES     
   15541 H6         623.5479  -735.6957  -451.0198 H6            1 RES     
   15542 H6         621.5014  -734.7006  -452.1266 H6            1 RES     
   15543 H6         621.0540  -736.3812  -452.6879 H6            1 RES     
   15544 H6         621.1915  -737.0560  -450.1887 H6            1 RES     
   15545 H6         621.3648  -735.3085  -449.8088 H6            1 RES     
   15546 H6         618.9356  -736.8077  -451.0268 H6            1 RES     
   15547 H6         619.1424  -736.1053  -449.3959 H6            1 RES     
   15548 H6         619.2171  -733.7701  -450.4717 H6            1 RES     
   15549 H6         617.6964  -734.6980  -450.4788 H6            1 RES     
   15550 H6         619.5522  -734.4442  -452.8893 H6            1 RES     
   15551 H6         618.0597  -735.4148  -452.8808 H6            1 RES     
   15552 H6         618.0409  -733.1575  -454.0094 H6            1 RES     
   15553 H6         618.2237  -732.3494  -452.4317 H6            1 RES     
   15554 H6         615.9137  -732.3457  -453.3855 H6            1 RES     
   15555 H6         615.8932  -734.1340  -453.4782 H6            1 RES     
   15556 H6         614.4734  -733.2476  -451.6748 H6            1 RES     
   15557 H6         615.7341  -734.2887  -451.0088 H6            1 RES     
   15558 H6         615.7669  -731.1912  -451.0801 H6            1 RES     
   15559 H6         615.4227  -732.2247  -449.6405 H6            1 RES     
   15560 H6         617.0704  -732.2180  -450.3585 H6            1 RES     
   15561 C0         630.6385  -736.7017  -455.3323 C0            1 RES     
   15562 C0         631.1904  -736.4361  -453.9101 C0            1 RES     
   15563 C0         632.5333  -737.0955  -453.5280 C0            1 RES     
   15564 C0         632.5173  -738.6014  -453.1664 C0            1 RES     
   15565 C0         631.4276  -738.9528  -452.1320 C0            1 RES     
   15566 C0         631.5980  -740.3087  -451.4319 C0            1 RES     
   15567 C0         632.6258  -740.2300  -450.2910 C0            1 RES     
   15568 C0         632.7286  -741.5589  -449.5281 C0            1 RES     
   15569 C0         633.6150  -741.3973  -448.2861 C0            1 RES     
   15570 C0         634.0416  -742.6924  -447.5615 C0            1 RES     
   15571 C0         632.9542  -743.5885  -446.9313 C0            1 RES     
   15572 C0         632.2178  -744.4956  -447.9383 C0            1 RES     
   15573 C0         631.1956  -745.4700  -447.3150 C0            1 RES     
   15574 C0         631.7413  -746.7817  -446.6974 C0            1 RES     
   15575 C0         632.6035  -746.6950  -445.4286 C0            1 RES     
   15576 C0         631.8963  -745.9822  -444.2777 C0            1 RES     
   15577 H6         630.6576  -737.7867  -455.5728 H6            1 RES     
   15578 H6         631.3622  -736.2053  -456.0171 H6            1 RES     
   15579 H6         631.3780  -735.3435  -453.8640 H6            1 RES     
   15580 H6         630.4691  -736.6746  -453.1172 H6            1 RES     
   15581 H6         633.3032  -736.8919  -454.3029 H6            1 RES     
   15582 H6         632.8616  -736.5790  -452.5982 H6            1 RES     
   15583 H6         632.3769  -739.2366  -454.0676 H6            1 RES     
   15584 H6         633.5209  -738.8244  -452.7464 H6            1 RES     
   15585 H6         631.3379  -738.1676  -451.3491 H6            1 RES     
   15586 H6         630.4834  -738.9992  -452.6906 H6            1 RES     
   15587 H6         631.8401  -741.1054  -452.1690 H6            1 RES     
   15588 H6         630.6241  -740.5610  -450.9589 H6            1 RES     
   15589 H6         633.6259  -739.9494  -450.6828 H6            1 RES     
   15590 H6         632.2888  -739.4411  -449.5806 H6            1 RES     
   15591 H6         631.7107  -741.8449  -449.1998 H6            1 RES     
   15592 H6         633.1482  -742.3294  -450.2099 H6            1 RES     
   15593 H6         634.5623  -740.9065  -448.6009 H6            1 RES     
   15594 H6         633.1051  -740.7171  -447.5676 H6            1 RES     
   15595 H6         634.6869  -743.3097  -448.2230 H6            1 RES     
   15596 H6         634.6807  -742.3407  -446.7206 H6            1 RES     
   15597 H6         632.2428  -742.9771  -446.3349 H6            1 RES     
   15598 H6         633.4982  -744.2348  -446.2310 H6            1 RES     
   15599 H6         631.6347  -743.8505  -448.6104 H6            1 RES     
   15600 H6         632.9363  -745.0698  -448.5622 H6            1 RES     
   15601 H6         630.5588  -745.8160  -448.1598 H6            1 RES     
   15602 H6         630.5240  -744.9314  -446.6135 H6            1 RES     
   15603 H6         630.8561  -747.4064  -446.4443 H6            1 RES     
   15604 H6         632.3189  -747.3297  -447.4737 H6            1 RES     
   15605 H6         632.8340  -747.7334  -445.1043 H6            1 RES     
   15606 H6         633.5792  -746.2244  -445.6401 H6            1 RES     
   15607 H6         630.9429  -746.4975  -444.0347 H6            1 RES     
   15608 H6         632.5477  -745.9964  -443.3787 H6            1 RES     
   15609 H6         631.6852  -744.9247  -444.5368 H6            1 RES     
   15610 C0         630.0319  -739.6463  -467.9018 C0            1 RES     
   15611 C1         629.7691  -738.4583  -466.9531 C1            1 RES     
   15612 C1         629.8744  -737.1307  -467.5928 C1            1 RES     
   15613 S2         630.5328  -736.0331  -466.3280 S2            1 RES     
   15614 C1         629.5847  -737.0807  -465.2022 C1            1 RES     
   15615 C1         629.4617  -738.3782  -465.6630 C1            1 RES     
   15616 C1         630.6082  -737.5001  -468.7941 C1            1 RES     
   15617 C1         630.6873  -738.8434  -469.0222 C1            1 RES     
   15618 C1         631.3317  -739.1509  -470.2340 C1            1 RES     
   15619 C1         631.6981  -737.9796  -470.9395 C1            1 RES     
   15620 S2         631.2224  -736.6123  -470.0514 S2            1 RES     
   15621 H3         629.2665  -739.2041  -464.9988 H3            1 RES     
   15622 H3         631.5073  -740.1588  -470.5889 H3            1 RES     
   15623 N4         633.1428  -738.9721  -472.6701 N4            1 RES     
   15624 C1         633.8720  -738.9496  -473.8251 C1            1 RES     
   15625 C1         633.8832  -737.8148  -474.6451 C1            1 RES     
   15626 C1         633.1318  -736.7127  -474.2569 C1            1 RES     
   15627 N4         633.0505  -735.5690  -474.9800 N4            1 RES     
   15628 S2         632.0363  -734.6444  -474.0613 S2            1 RES     
   15629 N4         631.6890  -735.6121  -472.7682 N4            1 RES     
   15630 C1         632.3923  -736.7423  -473.0434 C1            1 RES     
   15631 C1         632.4090  -737.9025  -472.2396 C1            1 RES     
   15632 H5         634.4546  -739.8167  -474.1085 H5            1 RES     
   15633 C0         628.6807  -740.2322  -468.4262 C0            1 RES     
   15634 C0         627.8223  -740.8744  -467.3318 C0            1 RES     
   15635 C0         626.4227  -741.3340  -467.7517 C0            1 RES     
   15636 C0         625.4744  -740.2286  -468.2428 C0            1 RES     
   15637 C0         625.4606  -738.9833  -467.3327 C0            1 RES     
   15638 C0         624.3090  -738.0304  -467.6754 C0            1 RES     
   15639 C0         622.9891  -738.5294  -467.0667 C0            1 RES     
   15640 C0         621.8146  -737.6284  -467.4503 C0            1 RES     
   15641 C0         620.5633  -738.0163  -466.6564 C0            1 RES     
   15642 C0         619.2311  -737.4063  -467.1362 C0            1 RES     
   15643 C0         619.1108  -735.8703  -467.1953 C0            1 RES     
   15644 C0         619.7385  -735.2458  -468.4616 C0            1 RES     
   15645 C0         619.5769  -733.7180  -468.5892 C0            1 RES     
   15646 C0         618.2251  -733.1857  -469.1229 C0            1 RES     
   15647 C0         616.9702  -733.3768  -468.2582 C0            1 RES     
   15648 C0         617.1169  -732.7803  -466.8597 C0            1 RES     
   15649 H6         628.1021  -739.3951  -468.8711 H6            1 RES     
   15650 H6         628.8680  -740.9736  -469.2334 H6            1 RES     
   15651 H6         628.3358  -741.7689  -466.9830 H6            1 RES     
   15652 H6         627.7023  -740.1800  -466.4798 H6            1 RES     
   15653 H6         626.4883  -742.1288  -468.5260 H6            1 RES     
   15654 H6         625.9644  -741.7869  -466.8439 H6            1 RES     
   15655 H6         625.7578  -739.9040  -469.2675 H6            1 RES     
   15656 H6         624.4691  -740.6937  -468.3066 H6            1 RES     
   15657 H6         625.3955  -739.2560  -466.2566 H6            1 RES     
   15658 H6         626.4206  -738.4466  -467.4907 H6            1 RES     
   15659 H6         624.2425  -737.8951  -468.7777 H6            1 RES     
   15660 H6         624.5215  -737.0391  -467.2181 H6            1 RES     
   15661 H6         622.7559  -739.5626  -467.3977 H6            1 RES     
   15662 H6         623.1080  -738.5333  -465.9596 H6            1 RES     
   15663 H6         622.0781  -736.5814  -467.1977 H6            1 RES     
   15664 H6         621.6362  -737.7372  -468.5425 H6            1 RES     
   15665 H6         620.4277  -739.1191  -466.7122 H6            1 RES     
   15666 H6         620.7347  -737.7509  -465.5890 H6            1 RES     
   15667 H6         618.9446  -737.8295  -468.1231 H6            1 RES     
   15668 H6         618.4787  -737.7648  -466.3983 H6            1 RES     
   15669 H6         619.5116  -735.4129  -466.2649 H6            1 RES     
   15670 H6         618.0320  -735.6752  -467.2216 H6            1 RES     
   15671 H6         620.8232  -735.4189  -468.4309 H6            1 RES     
   15672 H6         619.3520  -735.7337  -469.3826 H6            1 RES     
   15673 H6         620.3148  -733.4010  -469.3602 H6            1 RES     
   15674 H6         619.8744  -733.2184  -467.6432 H6            1 RES     
   15675 H6         618.3526  -732.0910  -469.2739 H6            1 RES     
   15676 H6         618.0314  -733.6358  -470.1211 H6            1 RES     
   15677 H6         616.1257  -732.8655  -468.7687 H6            1 RES     
   15678 H6         616.6843  -734.4413  -468.2018 H6            1 RES     
   15679 H6         617.3495  -731.6965  -466.9272 H6            1 RES     
   15680 H6         616.1652  -732.9075  -466.3025 H6            1 RES     
   15681 H6         617.9210  -733.2917  -466.2924 H6            1 RES     
   15682 C0         631.0468  -740.7407  -467.3697 C0            1 RES     
   15683 C0         630.8913  -741.1263  -465.8782 C0            1 RES     
   15684 C0         631.7305  -742.3114  -465.3532 C0            1 RES     
   15685 C0         631.2506  -743.7421  -465.7023 C0            1 RES     
   15686 C0         629.7545  -743.9591  -465.3940 C0            1 RES     
   15687 C0         629.3018  -745.4250  -465.3310 C0            1 RES     
   15688 C0         629.6519  -746.0666  -463.9783 C0            1 RES     
   15689 C0         629.1166  -747.5025  -463.8765 C0            1 RES     
   15690 C0         629.3134  -748.0490  -462.4563 C0            1 RES     
   15691 C0         629.0802  -749.5618  -462.2536 C0            1 RES     
   15692 C0         627.6732  -750.1419  -462.5113 C0            1 RES     
   15693 C0         627.3473  -750.3777  -464.0003 C0            1 RES     
   15694 C0         625.9842  -751.0486  -464.2734 C0            1 RES     
   15695 C0         625.9010  -752.5882  -464.1229 C0            1 RES     
   15696 C0         626.0497  -753.1999  -462.7213 C0            1 RES     
   15697 C0         625.0325  -752.6510  -461.7228 C0            1 RES     
   15698 H6         630.9670  -741.6352  -468.0247 H6            1 RES     
   15699 H6         632.0907  -740.3649  -467.4605 H6            1 RES     
   15700 H6         631.2426  -740.2433  -465.3053 H6            1 RES     
   15701 H6         629.8480  -741.3071  -465.5870 H6            1 RES     
   15702 H6         632.7999  -742.1845  -465.6266 H6            1 RES     
   15703 H6         631.6676  -742.2489  -464.2436 H6            1 RES     
   15704 H6         631.4377  -743.9865  -466.7704 H6            1 RES     
   15705 H6         631.8661  -744.4291  -465.0837 H6            1 RES     
   15706 H6         629.4562  -743.4634  -464.4439 H6            1 RES     
   15707 H6         629.2038  -743.4910  -466.2206 H6            1 RES     
   15708 H6         629.7064  -746.0000  -466.1926 H6            1 RES     
   15709 H6         628.1924  -745.4316  -465.4027 H6            1 RES     
   15710 H6         630.7504  -746.0685  -463.8178 H6            1 RES     
   15711 H6         629.1772  -745.4560  -463.1768 H6            1 RES     
   15712 H6         628.0321  -747.4800  -464.0983 H6            1 RES     
   15713 H6         629.6519  -748.1353  -464.6163 H6            1 RES     
   15714 H6         630.3708  -747.8686  -462.1616 H6            1 RES     
   15715 H6         628.6655  -747.4736  -461.7576 H6            1 RES     
   15716 H6         629.8290  -750.1479  -462.8288 H6            1 RES     
   15717 H6         629.2940  -749.7321  -461.1744 H6            1 RES     
   15718 H6         626.8978  -749.5177  -462.0165 H6            1 RES     
   15719 H6         627.6785  -751.1174  -462.0090 H6            1 RES     
   15720 H6         627.2949  -749.3972  -464.4941 H6            1 RES     
   15721 H6         628.1493  -750.9634  -464.4995 H6            1 RES     
   15722 H6         625.7754  -750.8730  -465.3525 H6            1 RES     
   15723 H6         625.1784  -750.5343  -463.7082 H6            1 RES     
   15724 H6         624.9003  -752.8913  -464.5029 H6            1 RES     
   15725 H6         626.6602  -753.0545  -464.7882 H6            1 RES     
   15726 H6         625.8899  -754.2966  -462.8118 H6            1 RES     
   15727 H6         627.0781  -753.0782  -462.3394 H6            1 RES     
   15728 H6         623.9995  -752.8296  -462.0896 H6            1 RES     
   15729 H6         625.1578  -753.1660  -460.7473 H6            1 RES     
   15730 H6         625.1815  -751.5637  -461.5631 H6            1 RES     
   15731 C0         635.9635  -739.4194  -479.2488 C0            1 RES     
   15732 C1         635.5161  -738.5535  -478.0527 C1            1 RES     
   15733 C1         636.1705  -737.2311  -477.9772 C1            1 RES     
   15734 S2         636.3434  -736.8744  -476.2219 S2            1 RES     
   15735 C1         634.7892  -737.7850  -476.0833 C1            1 RES     
   15736 C1         634.6516  -738.7504  -477.0632 C1            1 RES     
   15737 C1         637.3014  -737.4716  -478.8611 C1            1 RES     
   15738 C1         637.2168  -738.6197  -479.5941 C1            1 RES     
   15739 C1         638.2882  -738.7698  -480.4929 C1            1 RES     
   15740 C1         639.1673  -737.6614  -480.4432 C1            1 RES     
   15741 S2         638.6014  -736.5416  -479.2986 S2            1 RES     
   15742 H3         634.0062  -739.6041  -476.9372 H3            1 RES     
   15743 H3         638.4121  -739.6196  -481.1526 H3            1 RES     
   15744 N4         641.0388  -738.5558  -481.7715 N4            1 RES     
   15745 C1         642.2200  -738.4622  -482.4516 C1            1 RES     
   15746 C1         642.8425  -737.2226  -482.6419 C1            1 RES     
   15747 C1         642.2279  -736.0892  -482.1246 C1            1 RES     
   15748 N4         642.7266  -734.8365  -482.2646 N4            1 RES     
   15749 S2         641.5986  -733.9201  -481.4800 S2            1 RES     
   15750 N4         640.4946  -735.0287  -480.9496 N4            1 RES     
   15751 C1         641.0085  -736.2026  -481.4029 C1            1 RES     
   15752 C1         640.4127  -737.4700  -481.2267 C1            1 RES     
   15753 H5         642.6856  -739.3572  -482.8435 H5            1 RES     
   15754 C0         634.9429  -739.2893  -480.4258 C0            1 RES     
   15755 C0         633.5595  -739.8653  -480.1075 C0            1 RES     
   15756 C0         632.4720  -739.6366  -481.1618 C0            1 RES     
   15757 C0         632.1099  -738.1695  -481.4426 C0            1 RES     
   15758 C0         631.9053  -737.3325  -480.1632 C0            1 RES     
   15759 C0         631.2683  -735.9697  -480.4605 C0            1 RES     
   15760 C0         629.7497  -736.1077  -480.6513 C0            1 RES     
   15761 C0         629.1026  -734.7703  -481.0131 C0            1 RES     
   15762 C0         627.5758  -734.8898  -480.9782 C0            1 RES     
   15763 C0         626.7830  -733.7234  -481.6011 C0            1 RES     
   15764 C0         627.0071  -732.3055  -481.0386 C0            1 RES     
   15765 C0         628.2717  -731.6103  -481.5909 C0            1 RES     
   15766 C0         628.4918  -730.1643  -481.1036 C0            1 RES     
   15767 C0         627.6927  -729.0436  -481.8114 C0            1 RES     
   15768 C0         626.1674  -729.0089  -481.6354 C0            1 RES     
   15769 C0         625.7405  -728.9473  -480.1701 C0            1 RES     
   15770 H6         634.8231  -738.2077  -480.6480 H6            1 RES     
   15771 H6         635.3449  -739.7748  -481.3418 H6            1 RES     
   15772 H6         633.6584  -740.9454  -480.0131 H6            1 RES     
   15773 H6         633.1846  -739.4590  -479.1500 H6            1 RES     
   15774 H6         632.7437  -740.1345  -482.1177 H6            1 RES     
   15775 H6         631.5573  -740.1366  -480.7711 H6            1 RES     
   15776 H6         632.9057  -737.6846  -482.0487 H6            1 RES     
   15777 H6         631.1888  -738.1945  -482.0608 H6            1 RES     
   15778 H6         631.2820  -737.8665  -479.4129 H6            1 RES     
   15779 H6         632.9075  -737.1625  -479.7146 H6            1 RES     
   15780 H6         631.7647  -735.5014  -481.3392 H6            1 RES     
   15781 H6         631.4246  -735.3064  -479.5816 H6            1 RES     
   15782 H6         629.5072  -736.8377  -481.4512 H6            1 RES     
   15783 H6         629.3215  -736.4805  -479.6935 H6            1 RES     
   15784 H6         629.4113  -734.0161  -480.2611 H6            1 RES     
   15785 H6         629.4508  -734.4796  -482.0283 H6            1 RES     
   15786 H6         627.2717  -735.7979  -481.5445 H6            1 RES     
   15787 H6         627.2640  -735.0322  -479.9191 H6            1 RES     
   15788 H6         626.9270  -733.7020  -482.7029 H6            1 RES     
   15789 H6         625.7160  -733.9826  -481.4181 H6            1 RES     
   15790 H6         626.9946  -732.3217  -479.9273 H6            1 RES     
   15791 H6         626.1337  -731.7316  -481.3709 H6            1 RES     
   15792 H6         629.1524  -732.1682  -481.2435 H6            1 RES     
   15793 H6         628.2861  -731.6289  -482.7023 H6            1 RES     
   15794 H6         629.5541  -729.9268  -481.3370 H6            1 RES     
   15795 H6         628.3915  -730.1103  -479.9991 H6            1 RES     
   15796 H6         628.0872  -728.0789  -481.4228 H6            1 RES     
   15797 H6         627.9164  -729.0765  -482.9002 H6            1 RES     
   15798 H6         625.7876  -728.0986  -482.1479 H6            1 RES     
   15799 H6         625.6883  -729.8612  -482.1473 H6            1 RES     
   15800 H6         626.1829  -728.0551  -479.6786 H6            1 RES     
   15801 H6         624.6342  -728.8762  -480.1106 H6            1 RES     
   15802 H6         626.0584  -729.8595  -479.6254 H6            1 RES     
   15803 C0         636.3654  -740.9131  -478.9050 C0            1 RES     
   15804 C0         635.4440  -741.6361  -477.8921 C0            1 RES     
   15805 C0         635.6810  -743.1437  -477.6570 C0            1 RES     
   15806 C0         635.1585  -744.1293  -478.7315 C0            1 RES     
   15807 C0         633.6875  -743.8656  -479.1150 C0            1 RES     
   15808 C0         632.9843  -745.0135  -479.8536 C0            1 RES     
   15809 C0         632.5125  -746.1062  -478.8802 C0            1 RES     
   15810 C0         631.7259  -747.2090  -479.6039 C0            1 RES     
   15811 C0         631.1091  -748.1816  -478.5901 C0            1 RES     
   15812 C0         630.5180  -749.4923  -479.1530 C0            1 RES     
   15813 C0         629.3232  -749.4151  -480.1272 C0            1 RES     
   15814 C0         629.7101  -749.0660  -481.5789 C0            1 RES     
   15815 C0         628.5426  -749.0806  -482.5886 C0            1 RES     
   15816 C0         628.0997  -750.4543  -483.1513 C0            1 RES     
   15817 C0         627.4379  -751.4614  -482.1983 C0            1 RES     
   15818 C0         626.1962  -750.8993  -481.5091 C0            1 RES     
   15819 H6         636.4360  -741.4812  -479.8578 H6            1 RES     
   15820 H6         637.3759  -740.9356  -478.4388 H6            1 RES     
   15821 H6         635.6429  -741.1532  -476.9130 H6            1 RES     
   15822 H6         634.3761  -741.5006  -478.1090 H6            1 RES     
   15823 H6         636.7524  -743.3415  -477.4389 H6            1 RES     
   15824 H6         635.1089  -743.3922  -476.7351 H6            1 RES     
   15825 H6         635.7818  -744.0991  -479.6514 H6            1 RES     
   15826 H6         635.2561  -745.1429  -478.2881 H6            1 RES     
   15827 H6         633.0742  -743.5986  -478.2261 H6            1 RES     
   15828 H6         633.7021  -743.0078  -479.8002 H6            1 RES     
   15829 H6         633.6308  -745.4154  -480.6642 H6            1 RES     
   15830 H6         632.0671  -744.5932  -480.3206 H6            1 RES     
   15831 H6         633.3763  -746.5562  -478.3473 H6            1 RES     
   15832 H6         631.8416  -745.6296  -478.1296 H6            1 RES     
   15833 H6         630.9075  -746.7279  -480.1737 H6            1 RES     
   15834 H6         632.4149  -747.7455  -480.2908 H6            1 RES     
   15835 H6         631.9089  -748.4950  -477.8834 H6            1 RES     
   15836 H6         630.3321  -747.6426  -478.0028 H6            1 RES     
   15837 H6         631.3202  -750.1139  -479.6058 H6            1 RES     
   15838 H6         630.1520  -750.0384  -478.2546 H6            1 RES     
   15839 H6         628.5440  -748.7264  -479.7344 H6            1 RES     
   15840 H6         628.8977  -750.4265  -480.1259 H6            1 RES     
   15841 H6         630.0921  -748.0355  -481.5883 H6            1 RES     
   15842 H6         630.5216  -749.7292  -481.9492 H6            1 RES     
   15843 H6         628.9138  -748.5315  -483.4829 H6            1 RES     
   15844 H6         627.6824  -748.4985  -482.1955 H6            1 RES     
   15845 H6         627.3653  -750.2447  -483.9604 H6            1 RES     
   15846 H6         628.9772  -750.9474  -483.6238 H6            1 RES     
   15847 H6         627.1309  -752.3450  -482.7995 H6            1 RES     
   15848 H6         628.1598  -751.8418  -481.4550 H6            1 RES     
   15849 H6         625.4520  -750.5718  -482.2658 H6            1 RES     
   15850 H6         625.7369  -751.6870  -480.8758 H6            1 RES     
   15851 H6         626.4590  -750.0403  -480.8586 H6            1 RES     
   15852 C0         646.5128  -738.0439  -486.3768 C0            1 RES     
   15853 C1         645.7264  -737.4679  -485.1809 C1            1 RES     
   15854 C1         646.5081  -736.5611  -484.3153 C1            1 RES     
   15855 S2         645.8865  -736.8260  -482.6476 S2            1 RES     
   15856 C1         644.3118  -737.1036  -483.4886 C1            1 RES     
   15857 C1         644.4745  -737.6175  -484.7615 C1            1 RES     
   15858 C1         647.8525  -736.9261  -484.7366 C1            1 RES     
   15859 C1         647.9070  -737.6935  -485.8639 C1            1 RES     
   15860 C1         649.2251  -737.9525  -486.2808 C1            1 RES     
   15861 C1         650.1700  -737.3092  -485.4459 C1            1 RES     
   15862 S2         649.3561  -736.4505  -484.2274 S2            1 RES     
   15863 H3         643.6953  -738.1730  -485.2571 H3            1 RES     
   15864 H3         649.4812  -738.5541  -487.1440 H3            1 RES     
   15865 N4         652.2338  -738.3913  -486.2437 N4            1 RES     
   15866 C1         653.5888  -738.5396  -486.3354 C1            1 RES     
   15867 C1         654.4543  -737.6160  -485.7368 C1            1 RES     
   15868 C1         653.9012  -736.5429  -485.0494 C1            1 RES     
   15869 N4         654.6391  -735.5773  -484.4488 N4            1 RES     
   15870 S2         653.4763  -734.5872  -483.8202 S2            1 RES     
   15871 N4         652.0614  -735.3194  -484.2572 N4            1 RES     
   15872 C1         652.4898  -736.4103  -484.9456 C1            1 RES     
   15873 C1         651.6485  -737.3641  -485.5581 C1            1 RES     
   15874 H5         654.0008  -739.3847  -486.8717 H5            1 RES     
   15875 C0         646.2268  -737.2098  -487.6678 C0            1 RES     
   15876 C0         644.7776  -737.3073  -488.1550 C0            1 RES     
   15877 C0         644.3948  -736.3979  -489.3268 C0            1 RES     
   15878 C0         644.5044  -734.8873  -489.0653 C0            1 RES     
   15879 C0         643.8805  -734.4500  -487.7241 C0            1 RES     
   15880 C0         643.7423  -732.9263  -487.6211 C0            1 RES     
   15881 C0         642.5061  -732.4376  -488.3921 C0            1 RES     
   15882 C0         642.3851  -730.9136  -488.3569 C0            1 RES     
   15883 C0         641.0376  -730.4721  -488.9362 C0            1 RES     
   15884 C0         640.8833  -728.9691  -489.2434 C0            1 RES     
   15885 C0         641.0824  -727.9642  -488.0911 C0            1 RES     
   15886 C0         642.5648  -727.6493  -487.7900 C0            1 RES     
   15887 C0         642.8018  -726.5960  -486.6895 C0            1 RES     
   15888 C0         642.6740  -725.1061  -487.0886 C0            1 RES     
   15889 C0         641.2902  -724.5704  -487.4848 C0            1 RES     
   15890 C0         640.2360  -724.7915  -486.4018 C0            1 RES     
   15891 H6         646.4409  -736.1454  -487.4338 H6            1 RES     
   15892 H6         646.9144  -737.5158  -488.4862 H6            1 RES     
   15893 H6         644.6069  -738.3252  -488.5016 H6            1 RES     
   15894 H6         644.0778  -737.0934  -487.3261 H6            1 RES     
   15895 H6         644.9876  -736.6554  -490.2311 H6            1 RES     
   15896 H6         643.3273  -736.6206  -489.5506 H6            1 RES     
   15897 H6         645.5702  -734.5711  -489.0695 H6            1 RES     
   15898 H6         644.0063  -734.3911  -489.9236 H6            1 RES     
   15899 H6         642.8840  -734.9150  -487.5585 H6            1 RES     
   15900 H6         644.5574  -734.7978  -486.9146 H6            1 RES     
   15901 H6         644.6787  -732.4352  -487.9673 H6            1 RES     
   15902 H6         643.5851  -732.6562  -486.5537 H6            1 RES     
   15903 H6         642.5387  -732.7583  -489.4540 H6            1 RES     
   15904 H6         641.6088  -732.8925  -487.9149 H6            1 RES     
   15905 H6         642.4368  -730.5817  -487.3002 H6            1 RES     
   15906 H6         643.2253  -730.4851  -488.9460 H6            1 RES     
   15907 H6         640.8710  -730.9963  -489.9033 H6            1 RES     
   15908 H6         640.2364  -730.7958  -488.2345 H6            1 RES     
   15909 H6         641.5376  -728.6784  -490.0935 H6            1 RES     
   15910 H6         639.8316  -728.8624  -489.5919 H6            1 RES     
   15911 H6         640.5372  -728.3011  -487.1830 H6            1 RES     
   15912 H6         640.6049  -727.0407  -488.4399 H6            1 RES     
   15913 H6         643.0444  -728.5658  -487.4191 H6            1 RES     
   15914 H6         643.1048  -727.3438  -488.7124 H6            1 RES     
   15915 H6         643.8695  -726.7053  -486.3936 H6            1 RES     
   15916 H6         642.1984  -726.8368  -485.7890 H6            1 RES     
   15917 H6         643.0138  -724.5125  -486.2114 H6            1 RES     
   15918 H6         643.3797  -724.8962  -487.9220 H6            1 RES     
   15919 H6         641.3872  -723.4769  -487.6591 H6            1 RES     
   15920 H6         640.9587  -724.9976  -488.4469 H6            1 RES     
   15921 H6         640.5536  -724.3097  -485.4529 H6            1 RES     
   15922 H6         639.2739  -724.3424  -486.7259 H6            1 RES     
   15923 H6         640.0703  -725.8736  -486.2242 H6            1 RES     
   15924 C0         646.4019  -739.6111  -486.5831 C0            1 RES     
   15925 C0         644.9877  -740.2114  -486.3896 C0            1 RES     
   15926 C0         644.7850  -741.6987  -486.7518 C0            1 RES     
   15927 C0         644.6593  -742.0621  -488.2522 C0            1 RES     
   15928 C0         643.6340  -741.1792  -488.9939 C0            1 RES     
   15929 C0         643.1614  -741.7190  -490.3515 C0            1 RES     
   15930 C0         642.0793  -742.7984  -490.1844 C0            1 RES     
   15931 C0         641.5370  -743.2721  -491.5409 C0            1 RES     
   15932 C0         640.3346  -744.2044  -491.3421 C0            1 RES     
   15933 C0         639.8424  -744.9805  -492.5828 C0            1 RES     
   15934 C0         639.2999  -744.1894  -493.7921 C0            1 RES     
   15935 C0         640.3933  -743.5949  -494.7032 C0            1 RES     
   15936 C0         639.8732  -742.8843  -495.9710 C0            1 RES     
   15937 C0         639.4955  -743.7702  -497.1845 C0            1 RES     
   15938 C0         638.2771  -744.6987  -497.0671 C0            1 RES     
   15939 C0         636.9935  -743.9518  -496.7100 C0            1 RES     
   15940 H6         646.8073  -739.8580  -487.5881 H6            1 RES     
   15941 H6         647.0401  -740.1371  -485.8381 H6            1 RES     
   15942 H6         644.7840  -740.1458  -485.3008 H6            1 RES     
   15943 H6         644.2032  -739.6380  -486.9010 H6            1 RES     
   15944 H6         645.5597  -742.3288  -486.2647 H6            1 RES     
   15945 H6         643.8058  -741.9807  -486.3038 H6            1 RES     
   15946 H6         645.6387  -741.9921  -488.7730 H6            1 RES     
   15947 H6         644.3336  -743.1235  -488.2821 H6            1 RES     
   15948 H6         642.7358  -740.9812  -488.3682 H6            1 RES     
   15949 H6         644.1412  -740.2252  -489.1895 H6            1 RES     
   15950 H6         644.0245  -742.0713  -490.9578 H6            1 RES     
   15951 H6         642.6810  -740.8754  -490.8933 H6            1 RES     
   15952 H6         642.4767  -743.6680  -489.6202 H6            1 RES     
   15953 H6         641.2387  -742.3535  -489.6048 H6            1 RES     
   15954 H6         641.2021  -742.3807  -492.1058 H6            1 RES     
   15955 H6         642.3510  -743.7953  -492.0868 H6            1 RES     
   15956 H6         640.6208  -744.9813  -490.5991 H6            1 RES     
   15957 H6         639.4934  -743.6176  -490.9097 H6            1 RES     
   15958 H6         640.6250  -745.6892  -492.9300 H6            1 RES     
   15959 H6         638.9931  -745.5938  -492.2060 H6            1 RES     
   15960 H6         638.5788  -743.4123  -493.4575 H6            1 RES     
   15961 H6         638.7380  -744.9277  -494.3778 H6            1 RES     
   15962 H6         640.9255  -742.8214  -494.1319 H6            1 RES     
   15963 H6         641.1362  -744.3678  -494.9965 H6            1 RES     
   15964 H6         640.7256  -742.2716  -496.3413 H6            1 RES     
   15965 H6         639.0618  -742.1719  -495.7113 H6            1 RES     
   15966 H6         639.2941  -743.0788  -498.0326 H6            1 RES     
   15967 H6         640.3770  -744.3869  -497.4656 H6            1 RES     
   15968 H6         638.1295  -745.1900  -498.0536 H6            1 RES     
   15969 H6         638.4659  -745.5170  -496.3509 H6            1 RES     
   15970 H6         636.7816  -743.1681  -497.4681 H6            1 RES     
   15971 H6         636.1440  -744.6663  -496.6898 H6            1 RES     
   15972 H6         637.0748  -743.4806  -495.7093 H6            1 RES     
   15973 C0         659.2236  -738.5817  -487.8384 C0            1 RES     
   15974 C1         658.0904  -738.1380  -486.8901 C1            1 RES     
   15975 C1         658.5226  -737.8773  -485.5015 C1            1 RES     
   15976 S2         657.1413  -738.3753  -484.4614 S2            1 RES     
   15977 C1         656.1407  -737.7980  -485.8505 C1            1 RES     
   15978 C1         656.7886  -737.9366  -487.0637 C1            1 RES     
   15979 C1         659.8044  -738.5665  -485.5153 C1            1 RES     
   15980 C1         660.2406  -738.9322  -486.7557 C1            1 RES     
   15981 C1         661.5184  -739.5195  -486.7301 C1            1 RES     
   15982 C1         662.0538  -739.5420  -485.4199 C1            1 RES     
   15983 S2         660.9413  -738.8452  -484.3423 S2            1 RES     
   15984 H3         656.2500  -737.9968  -487.9952 H3            1 RES     
   15985 H3         662.0334  -739.8902  -487.6077 H3            1 RES     
   15986 N4         663.9922  -741.0163  -485.7886 N4            1 RES     
   15987 C1         665.1677  -741.6149  -485.4333 C1            1 RES     
   15988 C1         665.8025  -741.2914  -484.2280 C1            1 RES     
   15989 C1         665.2090  -740.3441  -483.4032 C1            1 RES     
   15990 N4         665.7418  -739.9375  -482.2249 N4            1 RES     
   15991 S2         664.6381  -738.8236  -481.7066 S2            1 RES     
   15992 N4         663.4927  -738.8251  -482.8970 N4            1 RES     
   15993 C1         663.9764  -739.7423  -483.7758 C1            1 RES     
   15994 C1         663.3630  -740.0973  -484.9966 C1            1 RES     
   15995 H5         665.6124  -742.3539  -486.0873 H5            1 RES     
   15996 C0         659.7581  -737.3606  -488.6552 C0            1 RES     
   15997 C0         658.7310  -736.7742  -489.6288 C0            1 RES     
   15998 C0         659.1403  -735.4863  -490.3501 C0            1 RES     
   15999 C0         659.4032  -734.2691  -489.4492 C0            1 RES     
   16000 C0         658.3127  -734.0500  -488.3805 C0            1 RES     
   16001 C0         658.4418  -732.6841  -487.6955 C0            1 RES     
   16002 C0         657.8467  -731.5742  -488.5762 C0            1 RES     
   16003 C0         658.0229  -730.1944  -487.9410 C0            1 RES     
   16004 C0         657.2317  -729.1419  -488.7237 C0            1 RES     
   16005 C0         657.5390  -727.6677  -488.3929 C0            1 RES     
   16006 C0         657.3542  -727.1921  -486.9380 C0            1 RES     
   16007 C0         658.5412  -727.5438  -486.0135 C0            1 RES     
   16008 C0         658.4230  -727.0241  -484.5669 C0            1 RES     
   16009 C0         658.7944  -725.5440  -484.3081 C0            1 RES     
   16010 C0         657.9029  -724.4490  -484.9123 C0            1 RES     
   16011 C0         656.4393  -724.5784  -484.4952 C0            1 RES     
   16012 H6         660.0368  -736.5675  -487.9293 H6            1 RES     
   16013 H6         660.6788  -737.6409  -489.2120 H6            1 RES     
   16014 H6         658.5524  -737.5088  -490.4123 H6            1 RES     
   16015 H6         657.7769  -736.5739  -489.1071 H6            1 RES     
   16016 H6         660.0302  -735.6639  -490.9920 H6            1 RES     
   16017 H6         658.2897  -735.2273  -491.0199 H6            1 RES     
   16018 H6         660.3796  -734.3776  -488.9288 H6            1 RES     
   16019 H6         659.4835  -733.3963  -490.1296 H6            1 RES     
   16020 H6         657.2896  -734.1456  -488.8056 H6            1 RES     
   16021 H6         658.4378  -734.8426  -487.6120 H6            1 RES     
   16022 H6         659.5049  -732.4903  -487.4307 H6            1 RES     
   16023 H6         657.8494  -732.7024  -486.7544 H6            1 RES     
   16024 H6         658.3199  -731.5567  -489.5798 H6            1 RES     
   16025 H6         656.7615  -731.7889  -488.7028 H6            1 RES     
   16026 H6         657.6266  -730.2312  -486.9061 H6            1 RES     
   16027 H6         659.1075  -729.9492  -487.9390 H6            1 RES     
   16028 H6         657.4494  -729.2594  -489.8085 H6            1 RES     
   16029 H6         656.1470  -729.3419  -488.5735 H6            1 RES     
   16030 H6         658.5624  -727.3996  -488.7335 H6            1 RES     
   16031 H6         656.8256  -727.0869  -489.0196 H6            1 RES     
   16032 H6         656.3875  -727.5580  -486.5292 H6            1 RES     
   16033 H6         657.2918  -726.0995  -487.0068 H6            1 RES     
   16034 H6         658.5962  -728.6375  -485.9226 H6            1 RES     
   16035 H6         659.5042  -727.1996  -486.4493 H6            1 RES     
   16036 H6         659.1747  -727.5975  -483.9790 H6            1 RES     
   16037 H6         657.4288  -727.2816  -484.1447 H6            1 RES     
   16038 H6         658.7817  -725.4020  -483.2049 H6            1 RES     
   16039 H6         659.8381  -725.3710  -484.6506 H6            1 RES     
   16040 H6         658.2822  -723.4674  -484.5546 H6            1 RES     
   16041 H6         657.9958  -724.4221  -486.0117 H6            1 RES     
   16042 H6         656.3514  -724.5481  -483.3886 H6            1 RES     
   16043 H6         655.8576  -723.7350  -484.9229 H6            1 RES     
   16044 H6         656.0018  -725.5258  -484.8705 H6            1 RES     
   16045 C0         658.9221  -739.8646  -488.7183 C0            1 RES     
   16046 C0         657.5016  -739.9356  -489.3304 C0            1 RES     
   16047 C0         657.2116  -741.0685  -490.3388 C0            1 RES     
   16048 C0         657.7505  -740.9018  -491.7812 C0            1 RES     
   16049 C0         657.3989  -739.5295  -492.3924 C0            1 RES     
   16050 C0         657.5381  -739.4339  -493.9187 C0            1 RES     
   16051 C0         656.3213  -740.0414  -494.6358 C0            1 RES     
   16052 C0         656.4131  -739.8624  -496.1584 C0            1 RES     
   16053 C0         655.1068  -740.3055  -496.8305 C0            1 RES     
   16054 C0         655.1274  -740.4460  -498.3680 C0            1 RES     
   16055 C0         655.3949  -739.1931  -499.2291 C0            1 RES     
   16056 C0         656.8826  -738.7990  -499.3303 C0            1 RES     
   16057 C0         657.1817  -737.6083  -500.2660 C0            1 RES     
   16058 C0         657.2659  -737.8956  -501.7860 C0            1 RES     
   16059 C0         655.9855  -738.3054  -502.5297 C0            1 RES     
   16060 C0         654.8608  -737.2823  -502.3840 C0            1 RES     
   16061 H6         659.7018  -739.9349  -489.5074 H6            1 RES     
   16062 H6         659.0102  -740.7816  -488.0933 H6            1 RES     
   16063 H6         656.8193  -740.1238  -488.4758 H6            1 RES     
   16064 H6         657.1858  -738.9922  -489.7953 H6            1 RES     
   16065 H6         657.5196  -742.0512  -489.9218 H6            1 RES     
   16066 H6         656.1038  -741.0920  -490.4457 H6            1 RES     
   16067 H6         658.8520  -741.0443  -491.8249 H6            1 RES     
   16068 H6         657.2793  -741.7115  -492.3778 H6            1 RES     
   16069 H6         656.3690  -739.2109  -492.1180 H6            1 RES     
   16070 H6         658.1125  -738.8144  -491.9622 H6            1 RES     
   16071 H6         658.4986  -739.8817  -494.2557 H6            1 RES     
   16072 H6         657.5499  -738.3540  -494.1824 H6            1 RES     
   16073 H6         656.2227  -741.1207  -494.3950 H6            1 RES     
   16074 H6         655.4108  -739.5123  -494.2732 H6            1 RES     
   16075 H6         656.5699  -738.7866  -496.3678 H6            1 RES     
   16076 H6         657.2695  -740.4610  -496.5363 H6            1 RES     
   16077 H6         654.8455  -741.3148  -496.4427 H6            1 RES     
   16078 H6         654.2938  -739.6074  -496.5293 H6            1 RES     
   16079 H6         655.8257  -741.2553  -498.6720 H6            1 RES     
   16080 H6         654.1005  -740.7885  -498.6277 H6            1 RES     
   16081 H6         654.7686  -738.3421  -498.8838 H6            1 RES     
   16082 H6         655.0499  -739.4676  -500.2338 H6            1 RES     
   16083 H6         657.2159  -738.4784  -498.3333 H6            1 RES     
   16084 H6         657.5087  -739.6665  -499.6317 H6            1 RES     
   16085 H6         658.2080  -737.2693  -500.0000 H6            1 RES     
   16086 H6         656.5013  -736.7593  -500.0433 H6            1 RES     
   16087 H6         657.6335  -736.9617  -502.2663 H6            1 RES     
   16088 H6         658.0352  -738.6794  -501.9601 H6            1 RES     
   16089 H6         656.2351  -738.3950  -503.6096 H6            1 RES     
   16090 H6         655.6455  -739.3079  -502.2173 H6            1 RES     
   16091 H6         655.1943  -736.2896  -502.7543 H6            1 RES     
   16092 H6         653.9844  -737.6091  -502.9821 H6            1 RES     
   16093 H6         654.5437  -737.1904  -501.3252 H6            1 RES     
   16094 C0         670.7040  -743.2668  -484.6386 C0            1 RES     
   16095 C1         669.3664  -742.7403  -484.0781 C1            1 RES     
   16096 C1         669.1235  -743.0767  -482.6601 C1            1 RES     
   16097 S2         667.3463  -743.3185  -482.5160 S2            1 RES     
   16098 C1         667.2658  -742.0344  -483.7843 C1            1 RES     
   16099 C1         668.3737  -742.0361  -484.6109 C1            1 RES     
   16100 C1         670.0938  -744.1492  -482.4978 C1            1 RES     
   16101 C1         670.9892  -744.2663  -483.5211 C1            1 RES     
   16102 C1         671.9571  -745.2591  -483.2841 C1            1 RES     
   16103 C1         671.7848  -745.8601  -482.0142 C1            1 RES     
   16104 S2         670.4524  -745.1558  -481.2311 S2            1 RES     
   16105 H3         668.3461  -741.6185  -485.6040 H3            1 RES     
   16106 H3         672.7455  -745.5160  -483.9806 H3            1 RES     
   16107 N4         673.3343  -747.7613  -482.2410 N4            1 RES     
   16108 C1         674.0547  -748.8238  -481.7734 C1            1 RES     
   16109 C1         674.0851  -749.1246  -480.4062 C1            1 RES     
   16110 C1         673.3669  -748.3141  -479.5361 C1            1 RES     
   16111 N4         673.3390  -748.4964  -478.1931 N4            1 RES     
   16112 S2         672.3628  -747.2623  -477.6917 S2            1 RES     
   16113 N4         671.9506  -746.4949  -479.0955 N4            1 RES     
   16114 C1         672.6065  -747.2229  -480.0375 C1            1 RES     
   16115 C1         672.5957  -746.9531  -481.4230 C1            1 RES     
   16116 H5         674.6044  -749.4462  -482.4676 H5            1 RES     
   16117 C0         671.7900  -742.1429  -484.5984 C0            1 RES     
   16118 C0         671.4899  -740.9634  -485.5287 C0            1 RES     
   16119 C0         672.4361  -739.7629  -485.4267 C0            1 RES     
   16120 C0         672.4675  -739.0492  -484.0659 C0            1 RES     
   16121 C0         671.0652  -738.7722  -483.4860 C0            1 RES     
   16122 C0         671.1141  -737.8146  -482.2893 C0            1 RES     
   16123 C0         671.2415  -736.3578  -482.7616 C0            1 RES     
   16124 C0         671.3574  -735.3905  -481.5829 C0            1 RES     
   16125 C0         671.2588  -733.9416  -482.0704 C0            1 RES     
   16126 C0         671.6508  -732.8492  -481.0554 C0            1 RES     
   16127 C0         670.8895  -732.7900  -479.7160 C0            1 RES     
   16128 C0         671.3957  -733.8062  -478.6678 C0            1 RES     
   16129 C0         670.7040  -733.7299  -477.2921 C0            1 RES     
   16130 C0         671.1864  -732.6344  -476.3109 C0            1 RES     
   16131 C0         670.9250  -731.1640  -476.6691 C0            1 RES     
   16132 C0         669.4468  -730.8667  -476.9133 C0            1 RES     
   16133 H6         671.8361  -741.7579  -483.5577 H6            1 RES     
   16134 H6         672.7902  -742.5627  -484.8428 H6            1 RES     
   16135 H6         671.5685  -741.3164  -486.5557 H6            1 RES     
   16136 H6         670.4624  -740.5918  -485.3597 H6            1 RES     
   16137 H6         673.4706  -740.0558  -485.7089 H6            1 RES     
   16138 H6         672.0782  -739.0265  -486.1809 H6            1 RES     
   16139 H6         673.0337  -739.6547  -483.3253 H6            1 RES     
   16140 H6         673.0314  -738.1073  -484.2272 H6            1 RES     
   16141 H6         670.3735  -738.3579  -484.2519 H6            1 RES     
   16142 H6         670.6506  -739.7441  -483.1426 H6            1 RES     
   16143 H6         671.9357  -738.1095  -481.5995 H6            1 RES     
   16144 H6         670.1532  -737.8916  -481.7346 H6            1 RES     
   16145 H6         672.1300  -736.2196  -483.4120 H6            1 RES     
   16146 H6         670.3309  -736.1140  -483.3540 H6            1 RES     
   16147 H6         670.5160  -735.5830  -480.8869 H6            1 RES     
   16148 H6         672.3331  -735.5705  -481.0809 H6            1 RES     
   16149 H6         671.9409  -733.8055  -482.9387 H6            1 RES     
   16150 H6         670.2191  -733.7665  -482.4272 H6            1 RES     
   16151 H6         672.7423  -732.8857  -480.8494 H6            1 RES     
   16152 H6         671.4525  -731.8913  -481.5865 H6            1 RES     
   16153 H6         669.7949  -732.8807  -479.8866 H6            1 RES     
   16154 H6         671.0816  -731.7819  -479.3295 H6            1 RES     
   16155 H6         671.1864  -734.8190  -479.0392 H6            1 RES     
   16156 H6         672.4958  -733.7254  -478.5301 H6            1 RES     
   16157 H6         670.9552  -734.6838  -476.7760 H6            1 RES     
   16158 H6         669.6005  -733.7186  -477.4154 H6            1 RES     
   16159 H6         670.6757  -732.8292  -475.3421 H6            1 RES     
   16160 H6         672.2778  -732.7618  -476.1396 H6            1 RES     
   16161 H6         671.2698  -730.5408  -475.8158 H6            1 RES     
   16162 H6         671.5354  -730.8504  -477.5334 H6            1 RES     
   16163 H6         668.8483  -731.1337  -476.0167 H6            1 RES     
   16164 H6         669.3173  -729.7836  -477.1196 H6            1 RES     
   16165 H6         669.0671  -731.4333  -477.7877 H6            1 RES     
   16166 C0         670.6168  -744.0307  -486.0241 C0            1 RES     
   16167 C0         669.6790  -743.3946  -487.0794 C0            1 RES     
   16168 C0         669.6922  -743.9924  -488.5030 C0            1 RES     
   16169 C0         670.8758  -743.6173  -489.4289 C0            1 RES     
   16170 C0         671.1340  -742.0969  -489.4774 C0            1 RES     
   16171 C0         672.0015  -741.6141  -490.6487 C0            1 RES     
   16172 C0         671.1840  -741.4953  -491.9455 C0            1 RES     
   16173 C0         672.0254  -740.9224  -493.0955 C0            1 RES     
   16174 C0         671.1417  -740.6390  -494.3174 C0            1 RES     
   16175 C0         671.8670  -740.3179  -495.6421 C0            1 RES     
   16176 C0         672.7516  -739.0556  -495.7225 C0            1 RES     
   16177 C0         674.1510  -739.2208  -495.0952 C0            1 RES     
   16178 C0         675.0862  -738.0028  -495.2523 C0            1 RES     
   16179 C0         675.8291  -737.8398  -496.6019 C0            1 RES     
   16180 C0         675.0083  -737.5154  -497.8595 C0            1 RES     
   16181 C0         674.1745  -736.2441  -497.7128 C0            1 RES     
   16182 H6         671.6481  -744.1451  -486.4225 H6            1 RES     
   16183 H6         670.2149  -745.0567  -485.8661 H6            1 RES     
   16184 H6         668.6494  -743.5633  -486.7014 H6            1 RES     
   16185 H6         669.8144  -742.3092  -487.1767 H6            1 RES     
   16186 H6         669.5654  -745.0956  -488.4648 H6            1 RES     
   16187 H6         668.7900  -743.5773  -489.0058 H6            1 RES     
   16188 H6         671.8124  -744.1324  -489.1238 H6            1 RES     
   16189 H6         670.5998  -743.9848  -490.4399 H6            1 RES     
   16190 H6         670.1827  -741.5204  -489.4902 H6            1 RES     
   16191 H6         671.6787  -741.8526  -488.5558 H6            1 RES     
   16192 H6         672.8982  -742.2610  -490.7682 H6            1 RES     
   16193 H6         672.3479  -740.5869  -490.4019 H6            1 RES     
   16194 H6         670.7743  -742.4833  -492.2427 H6            1 RES     
   16195 H6         670.3338  -740.8023  -491.7519 H6            1 RES     
   16196 H6         672.4692  -739.9679  -492.7525 H6            1 RES     
   16197 H6         672.8230  -741.6525  -493.3511 H6            1 RES     
   16198 H6         670.5360  -741.5492  -494.5226 H6            1 RES     
   16199 H6         670.4373  -739.8143  -494.0671 H6            1 RES     
   16200 H6         672.4529  -741.1981  -495.9843 H6            1 RES     
   16201 H6         671.0450  -740.1691  -496.3780 H6            1 RES     
   16202 H6         672.2159  -738.1769  -495.3023 H6            1 RES     
   16203 H6         672.8831  -738.8763  -496.7970 H6            1 RES     
   16204 H6         674.0221  -739.3528  -494.0117 H6            1 RES     
   16205 H6         674.6624  -740.1268  -495.4863 H6            1 RES     
   16206 H6         675.9040  -738.1565  -494.5129 H6            1 RES     
   16207 H6         674.5622  -737.0702  -494.9541 H6            1 RES     
   16208 H6         676.5553  -737.0079  -496.4668 H6            1 RES     
   16209 H6         676.4187  -738.7617  -496.7997 H6            1 RES     
   16210 H6         675.7209  -737.3678  -498.7002 H6            1 RES     
   16211 H6         674.3726  -738.3687  -498.1528 H6            1 RES     
   16212 H6         674.8304  -735.3801  -497.4739 H6            1 RES     
   16213 H6         673.6463  -736.0367  -498.6671 H6            1 RES     
   16214 H6         673.4146  -736.3589  -496.9132 H6            1 RES     
   16215 C0         678.0949  -752.5378  -479.8001 C0            1 RES     
   16216 C1         676.7838  -751.7495  -479.5998 C1            1 RES     
   16217 C1         675.8324  -752.3754  -478.6586 C1            1 RES     
   16218 S2         674.1942  -751.9825  -479.2911 S2            1 RES     
   16219 C1         674.9816  -750.4456  -479.8221 C1            1 RES     
   16220 C1         676.3254  -750.6082  -480.1025 C1            1 RES     
   16221 C1         676.3770  -753.7247  -478.6278 C1            1 RES     
   16222 C1         677.6103  -753.8537  -479.1977 C1            1 RES     
   16223 C1         678.1328  -755.1536  -479.0720 C1            1 RES     
   16224 C1         677.2611  -755.9954  -478.3405 C1            1 RES     
   16225 S2         675.8826  -755.1175  -477.8783 S2            1 RES     
   16226 H3         676.8578  -749.9370  -480.7561 H3            1 RES     
   16227 H3         679.0910  -755.4634  -479.4702 H3            1 RES     
   16228 N4         678.3265  -758.1735  -478.7739 N4            1 RES     
   16229 C1         678.5131  -759.5125  -478.5773 C1            1 RES     
   16230 C1         677.8270  -760.1918  -477.5633 C1            1 RES     
   16231 C1         676.9536  -759.4700  -476.7596 C1            1 RES     
   16232 N4         676.2522  -760.0162  -475.7362 N4            1 RES     
   16233 S2         675.4166  -758.7174  -475.1510 S2            1 RES     
   16234 N4         675.8841  -757.4759  -476.1356 N4            1 RES     
   16235 C1         676.7545  -758.0810  -476.9864 C1            1 RES     
   16236 C1         677.4602  -757.4309  -478.0217 C1            1 RES     
   16237 H5         679.1947  -760.0586  -479.2167 H5            1 RES     
   16238 C0         679.2246  -751.9535  -478.8909 C0            1 RES     
   16239 C0         679.6419  -750.5283  -479.2670 C0            1 RES     
   16240 C0         680.6372  -749.8435  -478.3251 C0            1 RES     
   16241 C0         680.1524  -749.6252  -476.8830 C0            1 RES     
   16242 C0         678.7281  -749.0393  -476.7967 C0            1 RES     
   16243 C0         678.3842  -748.5637  -475.3800 C0            1 RES     
   16244 C0         679.0028  -747.1845  -475.1028 C0            1 RES     
   16245 C0         678.7267  -746.7195  -473.6724 C0            1 RES     
   16246 C0         679.1573  -745.2604  -473.4935 C0            1 RES     
   16247 C0         679.2205  -744.7375  -472.0445 C0            1 RES     
   16248 C0         677.9396  -744.8016  -471.1887 C0            1 RES     
   16249 C0         677.6742  -746.1925  -470.5701 C0            1 RES     
   16250 C0         676.4390  -746.2776  -469.6516 C0            1 RES     
   16251 C0         676.5963  -745.7751  -468.1962 C0            1 RES     
   16252 C0         676.8298  -744.2755  -467.9606 C0            1 RES     
   16253 C0         675.7384  -743.4014  -468.5753 C0            1 RES     
   16254 H6         678.8414  -751.9367  -477.8486 H6            1 RES     
   16255 H6         680.1163  -752.6174  -478.9072 H6            1 RES     
   16256 H6         680.1315  -750.5664  -480.2387 H6            1 RES     
   16257 H6         678.7534  -749.8747  -479.3436 H6            1 RES     
   16258 H6         681.6011  -750.3967  -478.3060 H6            1 RES     
   16259 H6         680.8345  -748.8404  -478.7656 H6            1 RES     
   16260 H6         680.1654  -750.5847  -476.3218 H6            1 RES     
   16261 H6         680.8958  -748.9517  -476.4088 H6            1 RES     
   16262 H6         678.5825  -748.1955  -477.5062 H6            1 RES     
   16263 H6         678.0196  -749.8475  -477.0785 H6            1 RES     
   16264 H6         678.7007  -749.3272  -474.6352 H6            1 RES     
   16265 H6         677.2811  -748.4443  -475.3045 H6            1 RES     
   16266 H6         680.1016  -747.1954  -475.2577 H6            1 RES     
   16267 H6         678.5535  -746.4623  -475.8213 H6            1 RES     
   16268 H6         677.6358  -746.7873  -473.4856 H6            1 RES     
   16269 H6         679.2873  -747.3825  -472.9777 H6            1 RES     
   16270 H6         680.1832  -745.1336  -473.9050 H6            1 RES     
   16271 H6         678.4716  -744.6211  -474.0936 H6            1 RES     
   16272 H6         680.0497  -745.2289  -471.4912 H6            1 RES     
   16273 H6         679.4910  -743.6627  -472.1476 H6            1 RES     
   16274 H6         677.0661  -744.4318  -471.7680 H6            1 RES     
   16275 H6         678.1156  -744.0952  -470.3686 H6            1 RES     
   16276 H6         677.4754  -746.9013  -471.3860 H6            1 RES     
   16277 H6         678.5663  -746.5633  -470.0203 H6            1 RES     
   16278 H6         676.2216  -747.3637  -469.5399 H6            1 RES     
   16279 H6         675.5550  -745.8285  -470.1516 H6            1 RES     
   16280 H6         675.6578  -746.0459  -467.6640 H6            1 RES     
   16281 H6         677.4243  -746.3364  -467.7105 H6            1 RES     
   16282 H6         676.8385  -744.1021  -466.8627 H6            1 RES     
   16283 H6         677.8269  -743.9669  -468.3193 H6            1 RES     
   16284 H6         674.7452  -743.6826  -468.1657 H6            1 RES     
   16285 H6         675.9370  -742.3367  -468.3312 H6            1 RES     
   16286 H6         675.7210  -743.5058  -469.6792 H6            1 RES     
   16287 C0         678.5339  -752.7728  -481.3044 C0            1 RES     
   16288 C0         678.3590  -751.5579  -482.2484 C0            1 RES     
   16289 C0         678.9346  -751.6716  -483.6767 C0            1 RES     
   16290 C0         680.4640  -751.4999  -483.8509 C0            1 RES     
   16291 C0         681.0042  -750.2370  -483.1481 C0            1 RES     
   16292 C0         682.4013  -749.7824  -483.5947 C0            1 RES     
   16293 C0         682.3442  -748.9972  -484.9155 C0            1 RES     
   16294 C0         683.7262  -748.4599  -485.3156 C0            1 RES     
   16295 C0         683.6086  -747.5272  -486.5283 C0            1 RES     
   16296 C0         684.9257  -747.1184  -487.2228 C0            1 RES     
   16297 C0         685.9675  -746.3028  -486.4279 C0            1 RES     
   16298 C0         686.8339  -747.1443  -485.4686 C0            1 RES     
   16299 C0         687.9471  -746.3638  -484.7376 C0            1 RES     
   16300 C0         689.2603  -746.0937  -485.5137 C0            1 RES     
   16301 C0         689.2217  -745.1372  -486.7155 C0            1 RES     
   16302 C0         688.6849  -743.7532  -486.3559 C0            1 RES     
   16303 H6         679.5854  -753.1330  -481.3065 H6            1 RES     
   16304 H6         677.9144  -753.5788  -481.7580 H6            1 RES     
   16305 H6         677.2637  -751.4423  -482.3834 H6            1 RES     
   16306 H6         678.7328  -750.6200  -481.8165 H6            1 RES     
   16307 H6         678.5930  -752.6109  -484.1622 H6            1 RES     
   16308 H6         678.4830  -750.8276  -484.2449 H6            1 RES     
   16309 H6         681.0200  -752.3865  -483.4764 H6            1 RES     
   16310 H6         680.6394  -751.4260  -484.9451 H6            1 RES     
   16311 H6         680.3079  -749.3767  -483.2598 H6            1 RES     
   16312 H6         681.0777  -750.4913  -482.0825 H6            1 RES     
   16313 H6         683.1004  -750.6459  -483.6424 H6            1 RES     
   16314 H6         682.7798  -749.0743  -482.8258 H6            1 RES     
   16315 H6         681.9431  -749.6328  -485.7325 H6            1 RES     
   16316 H6         681.6583  -748.1318  -484.7699 H6            1 RES     
   16317 H6         684.1281  -747.8798  -484.4626 H6            1 RES     
   16318 H6         684.3894  -749.3206  -485.5476 H6            1 RES     
   16319 H6         683.0108  -748.0496  -487.3075 H6            1 RES     
   16320 H6         683.0461  -746.6154  -486.2264 H6            1 RES     
   16321 H6         685.4197  -748.0090  -487.6677 H6            1 RES     
   16322 H6         684.6024  -746.4702  -488.0683 H6            1 RES     
   16323 H6         685.4787  -745.4549  -485.9007 H6            1 RES     
   16324 H6         686.6287  -745.8761  -487.1925 H6            1 RES     
   16325 H6         686.1798  -747.5328  -484.6754 H6            1 RES     
   16326 H6         687.2825  -748.0161  -485.9921 H6            1 RES     
   16327 H6         688.2641  -747.0157  -483.8929 H6            1 RES     
   16328 H6         687.5373  -745.4366  -484.2841 H6            1 RES     
   16329 H6         689.9796  -745.6638  -484.7819 H6            1 RES     
   16330 H6         689.6804  -747.0648  -485.8555 H6            1 RES     
   16331 H6         690.2627  -745.0195  -487.0881 H6            1 RES     
   16332 H6         688.6514  -745.5724  -487.5543 H6            1 RES     
   16333 H6         689.3006  -743.2998  -485.5503 H6            1 RES     
   16334 H6         688.7291  -743.0963  -487.2499 H6            1 RES     
   16335 H6         687.6295  -743.8126  -486.0206 H6            1 RES     
   16336 C0         680.3071  -764.8487  -477.0547 C0            1 RES     
   16337 C1         679.2419  -763.7328  -477.0311 C1            1 RES     
   16338 C1         677.8552  -764.2153  -476.8665 C1            1 RES     
   16339 S2         676.8310  -763.0841  -477.8201 S2            1 RES     
   16340 C1         678.0584  -761.8578  -477.3164 C1            1 RES     
   16341 C1         679.3117  -762.4095  -477.1274 C1            1 RES     
   16342 C1         678.0442  -765.6149  -477.2180 C1            1 RES     
   16343 C1         679.3479  -766.0113  -477.2946 C1            1 RES     
   16344 C1         679.4823  -767.3871  -477.5546 C1            1 RES     
   16345 C1         678.2221  -768.0278  -477.6265 C1            1 RES     
   16346 S2         676.9914  -766.8852  -477.3725 S2            1 RES     
   16347 H3         680.2109  -761.8185  -477.1876 H3            1 RES     
   16348 H3         680.4330  -767.8933  -477.6666 H3            1 RES     
   16349 N4         678.9178  -770.2128  -478.5257 N4            1 RES     
   16350 C1         678.7230  -771.5214  -478.8663 C1            1 RES     
   16351 C1         677.5184  -772.1694  -478.5675 C1            1 RES     
   16352 C1         676.5266  -771.4497  -477.9130 C1            1 RES     
   16353 N4         675.3303  -771.9773  -477.5553 N4            1 RES     
   16354 S2         674.5876  -770.6974  -476.8218 S2            1 RES     
   16355 N4         675.7004  -769.4818  -476.9362 N4            1 RES     
   16356 C1         676.7349  -770.0834  -477.5808 C1            1 RES     
   16357 C1         677.9608  -769.4621  -477.9026 C1            1 RES     
   16358 H5         679.5062  -772.0643  -479.3796 H5            1 RES     
   16359 C0         680.9537  -765.0127  -475.6408 C0            1 RES     
   16360 C0         681.7683  -763.7956  -475.1916 C0            1 RES     
   16361 C0         682.3037  -763.8314  -473.7567 C0            1 RES     
   16362 C0         681.2416  -763.8862  -472.6472 C0            1 RES     
   16363 C0         680.0945  -762.8742  -472.8456 C0            1 RES     
   16364 C0         679.2152  -762.7457  -471.5958 C0            1 RES     
   16365 C0         679.8809  -761.8350  -470.5522 C0            1 RES     
   16366 C0         679.0512  -761.7446  -469.2709 C0            1 RES     
   16367 C0         679.6185  -760.6658  -468.3431 C0            1 RES     
   16368 C0         679.0816  -760.6536  -466.8979 C0            1 RES     
   16369 C0         677.5629  -760.4946  -466.6846 C0            1 RES     
   16370 C0         676.7691  -761.8082  -466.8630 C0            1 RES     
   16371 C0         675.2555  -761.7028  -466.5901 C0            1 RES     
   16372 C0         674.7922  -761.7449  -465.1139 C0            1 RES     
   16373 C0         675.1715  -760.5751  -464.1938 C0            1 RES     
   16374 C0         674.7007  -759.2237  -464.7278 C0            1 RES     
   16375 H6         680.1305  -765.1648  -474.9110 H6            1 RES     
   16376 H6         681.5960  -765.9198  -475.6121 H6            1 RES     
   16377 H6         682.6448  -763.7219  -475.8333 H6            1 RES     
   16378 H6         681.1712  -762.8714  -475.3003 H6            1 RES     
   16379 H6         683.0125  -764.6775  -473.6252 H6            1 RES     
   16380 H6         682.8786  -762.8878  -473.6212 H6            1 RES     
   16381 H6         680.7977  -764.9036  -472.5875 H6            1 RES     
   16382 H6         681.7827  -763.7024  -471.6961 H6            1 RES     
   16383 H6         680.4732  -761.8668  -473.1258 H6            1 RES     
   16384 H6         679.4651  -763.2463  -473.6822 H6            1 RES     
   16385 H6         678.9816  -763.7548  -471.1898 H6            1 RES     
   16386 H6         678.2576  -762.2597  -471.8850 H6            1 RES     
   16387 H6         680.8940  -762.2001  -470.2841 H6            1 RES     
   16388 H6         679.9802  -760.8216  -471.0026 H6            1 RES     
   16389 H6         678.0143  -761.4612  -469.5434 H6            1 RES     
   16390 H6         679.0701  -762.7394  -468.7744 H6            1 RES     
   16391 H6         680.7185  -760.8072  -468.2552 H6            1 RES     
   16392 H6         679.4424  -759.6741  -468.8172 H6            1 RES     
   16393 H6         679.4316  -761.5532  -466.3471 H6            1 RES     
   16394 H6         679.5718  -759.7727  -466.4259 H6            1 RES     
   16395 H6         677.1637  -759.6785  -467.3250 H6            1 RES     
   16396 H6         677.4591  -760.1764  -465.6403 H6            1 RES     
   16397 H6         676.8510  -762.1215  -467.9131 H6            1 RES     
   16398 H6         677.1981  -762.6232  -466.2406 H6            1 RES     
   16399 H6         674.8045  -762.6157  -467.0404 H6            1 RES     
   16400 H6         674.8249  -760.8363  -467.1348 H6            1 RES     
   16401 H6         673.6813  -761.7981  -465.1315 H6            1 RES     
   16402 H6         675.1599  -762.6860  -464.6493 H6            1 RES     
   16403 H6         674.6878  -760.7484  -463.2082 H6            1 RES     
   16404 H6         676.2570  -760.5610  -463.9951 H6            1 RES     
   16405 H6         673.5995  -759.2301  -464.8714 H6            1 RES     
   16406 H6         674.9613  -758.4277  -463.9991 H6            1 RES     
   16407 H6         675.1933  -758.9845  -465.6922 H6            1 RES     
   16408 C0         681.3565  -764.7736  -478.2396 C0            1 RES     
   16409 C0         681.8946  -763.3588  -478.5662 C0            1 RES     
   16410 C0         683.0483  -763.2489  -479.5866 C0            1 RES     
   16411 C0         684.4748  -763.6043  -479.0993 C0            1 RES     
   16412 C0         684.8474  -762.8930  -477.7817 C0            1 RES     
   16413 C0         686.3459  -762.8700  -477.4475 C0            1 RES     
   16414 C0         687.0813  -761.7669  -478.2262 C0            1 RES     
   16415 C0         688.5608  -761.6790  -477.8237 C0            1 RES     
   16416 C0         689.2215  -760.4554  -478.4722 C0            1 RES     
   16417 C0         690.7611  -760.3706  -478.3918 C0            1 RES     
   16418 C0         691.4321  -760.2647  -477.0058 C0            1 RES     
   16419 C0         691.5517  -761.6066  -476.2548 C0            1 RES     
   16420 C0         692.3075  -761.5388  -474.9106 C0            1 RES     
   16421 C0         693.8559  -761.5512  -474.9584 C0            1 RES     
   16422 C0         694.5836  -760.3385  -475.5588 C0            1 RES     
   16423 C0         694.2214  -759.0261  -474.8666 C0            1 RES     
   16424 H6         682.1880  -765.4750  -478.0113 H6            1 RES     
   16425 H6         680.8860  -765.1257  -479.1850 H6            1 RES     
   16426 H6         681.0435  -762.8172  -479.0283 H6            1 RES     
   16427 H6         682.1908  -762.7942  -477.6722 H6            1 RES     
   16428 H6         682.8049  -763.8108  -480.5137 H6            1 RES     
   16429 H6         683.0974  -762.1713  -479.8615 H6            1 RES     
   16430 H6         684.5994  -764.7006  -478.9648 H6            1 RES     
   16431 H6         685.1626  -763.2809  -479.9092 H6            1 RES     
   16432 H6         684.4718  -761.8461  -477.7613 H6            1 RES     
   16433 H6         684.3513  -763.4582  -476.9816 H6            1 RES     
   16434 H6         686.7994  -763.8739  -477.6002 H6            1 RES     
   16435 H6         686.4403  -762.6092  -476.3709 H6            1 RES     
   16436 H6         687.0046  -761.9413  -479.3199 H6            1 RES     
   16437 H6         686.5927  -760.7950  -477.9867 H6            1 RES     
   16438 H6         688.6101  -761.5646  -476.7237 H6            1 RES     
   16439 H6         689.0721  -762.6130  -478.1409 H6            1 RES     
   16440 H6         688.9803  -760.4691  -479.5581 H6            1 RES     
   16441 H6         688.7728  -759.5336  -478.0385 H6            1 RES     
   16442 H6         691.2235  -761.2066  -478.9597 H6            1 RES     
   16443 H6         691.0146  -759.4313  -478.9328 H6            1 RES     
   16444 H6         690.9264  -759.4926  -476.3861 H6            1 RES     
   16445 H6         692.4470  -759.9041  -477.2151 H6            1 RES     
   16446 H6         690.5366  -761.9445  -476.0029 H6            1 RES     
   16447 H6         692.0165  -762.3862  -476.8963 H6            1 RES     
   16448 H6         692.0483  -762.4790  -474.3740 H6            1 RES     
   16449 H6         691.9202  -760.7038  -474.2893 H6            1 RES     
   16450 H6         694.2058  -761.6496  -473.9068 H6            1 RES     
   16451 H6         694.1901  -762.4617  -475.5023 H6            1 RES     
   16452 H6         695.6762  -760.5049  -475.4370 H6            1 RES     
   16453 H6         694.4114  -760.2678  -476.6468 H6            1 RES     
   16454 H6         694.4517  -759.0876  -473.7818 H6            1 RES     
   16455 H6         694.8144  -758.1988  -475.3100 H6            1 RES     
   16456 H6         693.1455  -758.7919  -474.9996 H6            1 RES     
   16457 C0         678.4929  -777.3375  -479.2284 C0            1 RES     
   16458 C1         677.7865  -775.9701  -479.1215 C1            1 RES     
   16459 C1         676.4262  -775.9384  -479.6973 C1            1 RES     
   16460 S2         676.2251  -774.2847  -480.3775 S2            1 RES     
   16461 C1         677.2743  -773.7980  -478.9895 C1            1 RES     
   16462 C1         678.1499  -774.7985  -478.6111 C1            1 RES     
   16463 C1         676.4837  -777.1401  -480.5163 C1            1 RES     
   16464 C1         677.5597  -777.9436  -480.2731 C1            1 RES     
   16465 C1         677.5313  -779.1312  -481.0262 C1            1 RES     
   16466 C1         676.3617  -779.2158  -481.8190 C1            1 RES     
   16467 S2         675.4086  -777.8322  -481.5704 S2            1 RES     
   16468 H3         679.0638  -774.5870  -478.0806 H3            1 RES     
   16469 H3         678.3006  -779.8924  -480.9879 H3            1 RES     
   16470 N4         676.9621  -781.1349  -483.2415 N4            1 RES     
   16471 C1         676.7034  -782.1193  -484.1528 C1            1 RES     
   16472 C1         675.4027  -782.3399  -484.6216 C1            1 RES     
   16473 C1         674.3805  -781.5348  -484.1349 C1            1 RES     
   16474 N4         673.0821  -781.6694  -484.5006 N4            1 RES     
   16475 S2         672.3445  -780.4838  -483.6186 S2            1 RES     
   16476 N4         673.5889  -779.7826  -482.7885 N4            1 RES     
   16477 C1         674.6659  -780.5019  -483.2010 C1            1 RES     
   16478 C1         675.9907  -780.3060  -482.7548 C1            1 RES     
   16479 H5         677.5139  -782.7335  -484.5234 H5            1 RES     
   16480 C0         678.3388  -778.1347  -477.8925 C0            1 RES     
   16481 C0         679.0586  -777.4894  -476.7041 C0            1 RES     
   16482 C0         678.8242  -778.1389  -475.3367 C0            1 RES     
   16483 C0         677.3734  -778.1262  -474.8295 C0            1 RES     
   16484 C0         676.6828  -776.7552  -474.9805 C0            1 RES     
   16485 C0         675.3572  -776.6887  -474.2124 C0            1 RES     
   16486 C0         675.6057  -776.4346  -472.7173 C0            1 RES     
   16487 C0         674.3000  -776.4291  -471.9212 C0            1 RES     
   16488 C0         674.5524  -775.9565  -470.4862 C0            1 RES     
   16489 C0         673.4040  -776.1752  -469.4810 C0            1 RES     
   16490 C0         672.0322  -775.5432  -469.7908 C0            1 RES     
   16491 C0         671.1820  -776.3610  -470.7887 C0            1 RES     
   16492 C0         669.7756  -775.7957  -471.0702 C0            1 RES     
   16493 C0         668.6649  -776.0984  -470.0357 C0            1 RES     
   16494 C0         668.7776  -775.4745  -468.6368 C0            1 RES     
   16495 C0         668.8927  -773.9519  -468.6739 C0            1 RES     
   16496 H6         677.2552  -778.1834  -477.6539 H6            1 RES     
   16497 H6         678.6986  -779.1788  -478.0214 H6            1 RES     
   16498 H6         680.1304  -777.5554  -476.8838 H6            1 RES     
   16499 H6         678.7790  -776.4232  -476.6177 H6            1 RES     
   16500 H6         679.2036  -779.1837  -475.3302 H6            1 RES     
   16501 H6         679.4355  -777.5553  -474.6121 H6            1 RES     
   16502 H6         676.7666  -778.8803  -475.3762 H6            1 RES     
   16503 H6         677.4179  -778.4414  -473.7666 H6            1 RES     
   16504 H6         677.3372  -775.9213  -474.6443 H6            1 RES     
   16505 H6         676.4713  -776.6078  -476.0613 H6            1 RES     
   16506 H6         674.7665  -777.6142  -474.3922 H6            1 RES     
   16507 H6         674.7698  -775.8247  -474.5938 H6            1 RES     
   16508 H6         676.2741  -777.2058  -472.2815 H6            1 RES     
   16509 H6         676.1033  -775.4432  -472.6213 H6            1 RES     
   16510 H6         673.5975  -775.7201  -472.4042 H6            1 RES     
   16511 H6         673.8852  -777.4608  -471.9279 H6            1 RES     
   16512 H6         675.4249  -776.5089  -470.0722 H6            1 RES     
   16513 H6         674.8213  -774.8769  -470.5196 H6            1 RES     
   16514 H6         673.2653  -777.2597  -469.2813 H6            1 RES     
   16515 H6         673.7696  -775.7152  -468.5357 H6            1 RES     
   16516 H6         672.1553  -774.4881  -470.1182 H6            1 RES     
   16517 H6         671.5060  -775.5317  -468.8288 H6            1 RES     
   16518 H6         671.6932  -776.3584  -471.7614 H6            1 RES     
   16519 H6         671.0932  -777.4207  -470.4649 H6            1 RES     
   16520 H6         669.4270  -776.3048  -471.9969 H6            1 RES     
   16521 H6         669.8359  -774.7129  -471.3084 H6            1 RES     
   16522 H6         667.7115  -775.7347  -470.4785 H6            1 RES     
   16523 H6         668.5745  -777.2006  -469.9187 H6            1 RES     
   16524 H6         667.8584  -775.7412  -468.0717 H6            1 RES     
   16525 H6         669.6150  -775.9168  -468.0702 H6            1 RES     
   16526 H6         668.0170  -773.5133  -469.1973 H6            1 RES     
   16527 H6         668.9225  -773.5586  -467.6361 H6            1 RES     
   16528 H6         669.8222  -773.6365  -469.1901 H6            1 RES     
   16529 C0         679.9728  -777.3055  -479.7939 C0            1 RES     
   16530 C0         680.8651  -776.1562  -479.2642 C0            1 RES     
   16531 C0         682.3625  -776.1799  -479.6406 C0            1 RES     
   16532 C0         683.2821  -777.1581  -478.8684 C0            1 RES     
   16533 C0         683.1097  -777.0538  -477.3386 C0            1 RES     
   16534 C0         684.2379  -777.6789  -476.5054 C0            1 RES     
   16535 C0         685.4547  -776.7438  -476.4107 C0            1 RES     
   16536 C0         686.5466  -777.3249  -475.5002 C0            1 RES     
   16537 C0         687.6606  -776.2944  -475.2736 C0            1 RES     
   16538 C0         688.9573  -776.8053  -474.6091 C0            1 RES     
   16539 C0         688.8899  -777.3647  -473.1720 C0            1 RES     
   16540 C0         688.3722  -778.8147  -473.0795 C0            1 RES     
   16541 C0         688.3901  -779.4265  -471.6624 C0            1 RES     
   16542 C0         689.7366  -779.9886  -471.1421 C0            1 RES     
   16543 C0         690.8830  -779.0065  -470.8560 C0            1 RES     
   16544 C0         690.4973  -777.9188  -469.8554 C0            1 RES     
   16545 H6         680.4392  -778.2957  -479.6008 H6            1 RES     
   16546 H6         679.9532  -777.1664  -480.8982 H6            1 RES     
   16547 H6         680.4626  -775.2311  -479.7261 H6            1 RES     
   16548 H6         680.8013  -776.0289  -478.1753 H6            1 RES     
   16549 H6         682.4879  -776.3145  -480.7364 H6            1 RES     
   16550 H6         682.7458  -775.1652  -479.3903 H6            1 RES     
   16551 H6         683.1111  -778.2114  -479.1794 H6            1 RES     
   16552 H6         684.3213  -776.8851  -479.1496 H6            1 RES     
   16553 H6         682.9821  -775.9981  -477.0121 H6            1 RES     
   16554 H6         682.1923  -777.6074  -477.0987 H6            1 RES     
   16555 H6         684.5039  -778.6861  -476.8946 H6            1 RES     
   16556 H6         683.8548  -777.8000  -475.4688 H6            1 RES     
   16557 H6         685.8780  -776.5479  -477.4181 H6            1 RES     
   16558 H6         685.1110  -775.7776  -475.9762 H6            1 RES     
   16559 H6         686.0851  -777.5656  -474.5231 H6            1 RES     
   16560 H6         686.9543  -778.2431  -475.9746 H6            1 RES     
   16561 H6         687.9705  -775.8988  -476.2660 H6            1 RES     
   16562 H6         687.2485  -775.4442  -474.6852 H6            1 RES     
   16563 H6         689.4621  -777.5453  -475.2669 H6            1 RES     
   16564 H6         689.6159  -775.9089  -474.5634 H6            1 RES     
   16565 H6         688.3110  -776.6806  -472.5143 H6            1 RES     
   16566 H6         689.9295  -777.3551  -472.8210 H6            1 RES     
   16567 H6         687.3166  -778.8167  -473.3857 H6            1 RES     
   16568 H6         688.9252  -779.4840  -473.7733 H6            1 RES     
   16569 H6         687.7285  -780.3202  -471.7142 H6            1 RES     
   16570 H6         687.9238  -778.7305  -470.9333 H6            1 RES     
   16571 H6         689.5144  -780.5128  -470.1863 H6            1 RES     
   16572 H6         690.1056  -780.7546  -471.8588 H6            1 RES     
   16573 H6         691.7282  -779.5881  -470.4275 H6            1 RES     
   16574 H6         691.2694  -778.5608  -471.7889 H6            1 RES     
   16575 H6         690.1640  -778.3767  -468.8999 H6            1 RES     
   16576 H6         691.3782  -777.2742  -469.6529 H6            1 RES     
   16577 H6         689.6850  -777.2801  -470.2582 H6            1 RES     
   16578 C0         675.5473  -787.0655  -487.0181 C0            1 RES     
   16579 C1         675.1574  -785.6313  -486.6040 C1            1 RES     
   16580 C1         674.2738  -784.9373  -487.5633 C1            1 RES     
   16581 S2         674.7487  -783.2031  -487.4939 S2            1 RES     
   16582 C1         675.0784  -783.5649  -485.7549 C1            1 RES     
   16583 C1         675.4527  -784.8795  -485.5490 C1            1 RES     
   16584 C1         674.4807  -785.7785  -488.7328 C1            1 RES     
   16585 C1         675.1296  -786.9526  -488.4817 C1            1 RES     
   16586 C1         675.2341  -787.7694  -489.6220 C1            1 RES     
   16587 C1         674.5949  -787.1837  -490.7410 C1            1 RES     
   16588 S2         673.9291  -785.6869  -490.2928 S2            1 RES     
   16589 H3         676.0229  -785.1826  -484.6863 H3            1 RES     
   16590 H3         675.7265  -788.7338  -489.6343 H3            1 RES     
   16591 N4         675.4157  -788.6791  -492.5178 N4            1 RES     
   16592 C1         675.4382  -789.1858  -493.7864 C1            1 RES     
   16593 C1         674.5054  -788.7677  -494.7431 C1            1 RES     
   16594 C1         673.5539  -787.8267  -494.3699 C1            1 RES     
   16595 N4         672.5905  -787.3640  -495.2038 N4            1 RES     
   16596 S2         671.7679  -786.3072  -494.2372 S2            1 RES     
   16597 N4         672.5733  -786.3866  -492.7970 N4            1 RES     
   16598 C1         673.5530  -787.2937  -493.0522 C1            1 RES     
   16599 C1         674.5124  -787.7356  -492.1159 C1            1 RES     
   16600 H5         676.1900  -789.9150  -494.0593 H5            1 RES     
   16601 C0         674.6214  -788.1066  -486.3089 C0            1 RES     
   16602 C0         674.7954  -788.1494  -484.7875 C0            1 RES     
   16603 C0         673.8145  -789.0400  -484.0187 C0            1 RES     
   16604 C0         672.3319  -788.6484  -484.1230 C0            1 RES     
   16605 C0         672.0795  -787.1410  -483.9150 C0            1 RES     
   16606 C0         670.5899  -786.8245  -483.7348 C0            1 RES     
   16607 C0         670.1374  -787.1309  -482.2985 C0            1 RES     
   16608 C0         668.6396  -786.8837  -482.1139 C0            1 RES     
   16609 C0         668.2616  -786.9810  -480.6327 C0            1 RES     
   16610 C0         666.7549  -787.0508  -480.3133 C0            1 RES     
   16611 C0         665.8512  -785.9006  -480.8007 C0            1 RES     
   16612 C0         665.4409  -786.0188  -482.2856 C0            1 RES     
   16613 C0         664.4810  -784.9232  -482.7907 C0            1 RES     
   16614 C0         662.9762  -785.0896  -482.4691 C0            1 RES     
   16615 C0         662.5253  -784.9915  -481.0042 C0            1 RES     
   16616 C0         662.9381  -783.6779  -480.3431 C0            1 RES     
   16617 H6         673.5698  -787.8243  -486.5277 H6            1 RES     
   16618 H6         674.7880  -789.1222  -486.7298 H6            1 RES     
   16619 H6         675.7865  -788.5460  -484.5732 H6            1 RES     
   16620 H6         674.7222  -787.1310  -484.3631 H6            1 RES     
   16621 H6         673.9330  -790.1032  -484.3206 H6            1 RES     
   16622 H6         674.1052  -788.9610  -482.9470 H6            1 RES     
   16623 H6         671.9268  -788.9320  -485.1187 H6            1 RES     
   16624 H6         671.8005  -789.2560  -483.3617 H6            1 RES     
   16625 H6         672.6415  -786.7424  -483.0422 H6            1 RES     
   16626 H6         672.4437  -786.6154  -484.8237 H6            1 RES     
   16627 H6         669.9898  -787.3733  -484.4941 H6            1 RES     
   16628 H6         670.4373  -785.7347  -483.8961 H6            1 RES     
   16629 H6         670.3513  -788.1844  -482.0230 H6            1 RES     
   16630 H6         670.7107  -786.4652  -481.6145 H6            1 RES     
   16631 H6         668.4068  -785.8589  -482.4674 H6            1 RES     
   16632 H6         668.0867  -787.6415  -482.7110 H6            1 RES     
   16633 H6         668.7035  -787.9092  -480.2074 H6            1 RES     
   16634 H6         668.7180  -786.1157  -480.1015 H6            1 RES     
   16635 H6         666.3296  -788.0168  -480.6614 H6            1 RES     
   16636 H6         666.7057  -787.0563  -479.2013 H6            1 RES     
   16637 H6         666.3185  -784.9173  -480.5765 H6            1 RES     
   16638 H6         664.9428  -785.9815  -480.1917 H6            1 RES     
   16639 H6         666.3442  -785.9167  -482.9029 H6            1 RES     
   16640 H6         665.0037  -787.0176  -482.5022 H6            1 RES     
   16641 H6         664.5263  -784.9727  -483.9020 H6            1 RES     
   16642 H6         664.8573  -783.9187  -482.5037 H6            1 RES     
   16643 H6         662.4421  -784.2899  -483.0282 H6            1 RES     
   16644 H6         662.6283  -786.0645  -482.8755 H6            1 RES     
   16645 H6         661.4160  -785.0578  -480.9858 H6            1 RES     
   16646 H6         662.8856  -785.8547  -480.4184 H6            1 RES     
   16647 H6         662.5236  -782.8167  -480.9087 H6            1 RES     
   16648 H6         662.5439  -783.6469  -479.3058 H6            1 RES     
   16649 H6         664.0423  -783.5867  -480.2966 H6            1 RES     
   16650 C0         677.0914  -787.4110  -486.9323 C0            1 RES     
   16651 C0         677.8261  -786.8777  -485.6779 C0            1 RES     
   16652 C0         679.2839  -787.3344  -485.4530 C0            1 RES     
   16653 C0         679.5119  -788.7614  -484.8957 C0            1 RES     
   16654 C0         678.6532  -789.0567  -483.6483 C0            1 RES     
   16655 C0         679.0994  -790.2660  -482.8138 C0            1 RES     
   16656 C0         680.2783  -789.9122  -481.8924 C0            1 RES     
   16657 C0         680.6651  -791.0921  -480.9884 C0            1 RES     
   16658 C0         681.7114  -790.6554  -479.9546 C0            1 RES     
   16659 C0         682.4049  -791.7756  -479.1495 C0            1 RES     
   16660 C0         681.5513  -792.6682  -478.2236 C0            1 RES     
   16661 C0         680.7813  -793.7870  -478.9547 C0            1 RES     
   16662 C0         680.0001  -794.7511  -478.0366 C0            1 RES     
   16663 C0         680.7952  -795.8924  -477.3545 C0            1 RES     
   16664 C0         681.8314  -795.5276  -476.2803 C0            1 RES     
   16665 C0         681.2344  -794.7208  -475.1290 C0            1 RES     
   16666 H6         677.2058  -788.5127  -487.0248 H6            1 RES     
   16667 H6         677.6296  -786.9559  -487.7939 H6            1 RES     
   16668 H6         677.8822  -785.7777  -485.8123 H6            1 RES     
   16669 H6         677.2757  -787.0624  -484.7458 H6            1 RES     
   16670 H6         679.8890  -787.1764  -486.3714 H6            1 RES     
   16671 H6         679.6900  -786.6519  -484.6731 H6            1 RES     
   16672 H6         679.3092  -789.5378  -485.6649 H6            1 RES     
   16673 H6         680.5895  -788.8169  -484.6327 H6            1 RES     
   16674 H6         678.5933  -788.1739  -482.9742 H6            1 RES     
   16675 H6         677.6451  -789.2814  -484.0208 H6            1 RES     
   16676 H6         679.3172  -791.1381  -483.4686 H6            1 RES     
   16677 H6         678.2522  -790.5383  -482.1475 H6            1 RES     
   16678 H6         681.1607  -789.5971  -482.4880 H6            1 RES     
   16679 H6         679.9642  -789.0613  -481.2460 H6            1 RES     
   16680 H6         679.7558  -791.4239  -480.4510 H6            1 RES     
   16681 H6         681.0624  -791.9123  -481.6239 H6            1 RES     
   16682 H6         682.5284  -790.1269  -480.4940 H6            1 RES     
   16683 H6         681.2426  -789.9272  -479.2553 H6            1 RES     
   16684 H6         683.0077  -792.4198  -479.8253 H6            1 RES     
   16685 H6         683.1216  -791.2378  -478.4889 H6            1 RES     
   16686 H6         680.8741  -792.0462  -477.5988 H6            1 RES     
   16687 H6         682.2756  -793.1426  -477.5497 H6            1 RES     
   16688 H6         680.0232  -793.3133  -479.5941 H6            1 RES     
   16689 H6         681.4564  -794.3758  -479.6126 H6            1 RES     
   16690 H6         679.2843  -795.2837  -478.7022 H6            1 RES     
   16691 H6         679.3876  -794.1809  -477.3065 H6            1 RES     
   16692 H6         680.0458  -796.5556  -476.8683 H6            1 RES     
   16693 H6         681.3047  -796.4926  -478.1397 H6            1 RES     
   16694 H6         682.2372  -796.4761  -475.8654 H6            1 RES     
   16695 H6         682.6951  -795.0005  -476.7211 H6            1 RES     
   16696 H6         680.4030  -795.2848  -474.6553 H6            1 RES     
   16697 H6         682.0175  -794.5327  -474.3648 H6            1 RES     
   16698 H6         680.8556  -793.7415  -475.4862 H6            1 RES     
   16699 C0         674.8551  -792.2887  -498.6898 C0            1 RES     
   16700 C1         674.6023  -791.0016  -497.8774 C1            1 RES     
   16701 C1         674.4393  -789.7836  -498.6977 C1            1 RES     
   16702 S2         675.1504  -788.4457  -497.7270 S2            1 RES     
   16703 C1         674.5309  -789.3976  -496.3219 C1            1 RES     
   16704 C1         674.4972  -790.7560  -496.5759 C1            1 RES     
   16705 C1         675.0119  -790.2578  -499.9488 C1            1 RES     
   16706 C1         675.2190  -791.6056  -500.0052 C1            1 RES     
   16707 C1         675.6948  -792.0294  -501.2592 C1            1 RES     
   16708 C1         675.7963  -790.9493  -502.1685 C1            1 RES     
   16709 S2         675.3031  -789.5163  -501.4019 S2            1 RES     
   16710 H3         674.5142  -791.4858  -495.7832 H3            1 RES     
   16711 H3         675.9347  -793.0573  -501.5011 H3            1 RES     
   16712 N4         677.0577  -792.0466  -503.9773 N4            1 RES     
   16713 C1         677.5848  -792.1289  -505.2350 C1            1 RES     
   16714 C1         677.3247  -791.1373  -506.1888 C1            1 RES     
   16715 C1         676.5145  -790.0688  -505.8257 C1            1 RES     
   16716 N4         676.1782  -789.0630  -506.6698 N4            1 RES     
   16717 S2         675.2172  -788.1139  -505.7193 S2            1 RES     
   16718 N4         675.2030  -788.9020  -504.2675 N4            1 RES     
   16719 C1         675.9875  -789.9856  -504.5082 C1            1 RES     
   16720 C1         676.2755  -791.0019  -503.5718 C1            1 RES     
   16721 H5         678.2173  -792.9670  -505.4977 H5            1 RES     
   16722 C0         673.5205  -793.0789  -498.8851 C0            1 RES     
   16723 C0         672.9337  -793.6281  -497.5808 C0            1 RES     
   16724 C0         671.5527  -794.2830  -497.6826 C0            1 RES     
   16725 C0         670.4090  -793.3652  -498.1430 C0            1 RES     
   16726 C0         670.3868  -792.0029  -497.4198 C0            1 RES     
   16727 C0         669.0864  -791.2326  -497.6792 C0            1 RES     
   16728 C0         667.9525  -791.7609  -496.7866 C0            1 RES     
   16729 C0         666.6296  -791.0501  -497.0750 C0            1 RES     
   16730 C0         665.5788  -791.4341  -496.0287 C0            1 RES     
   16731 C0         664.1221  -791.0398  -496.3441 C0            1 RES     
   16732 C0         663.8049  -789.5505  -496.5864 C0            1 RES     
   16733 C0         664.1405  -789.0679  -498.0154 C0            1 RES     
   16734 C0         663.7731  -787.6012  -498.3161 C0            1 RES     
   16735 C0         662.2982  -787.2934  -498.6702 C0            1 RES     
   16736 C0         661.2307  -787.4735  -497.5807 C0            1 RES     
   16737 C0         661.5239  -786.6586  -496.3225 C0            1 RES     
   16738 H6         672.7793  -792.3812  -499.3294 H6            1 RES     
   16739 H6         673.6667  -793.9128  -499.6059 H6            1 RES     
   16740 H6         673.6029  -794.4033  -497.2111 H6            1 RES     
   16741 H6         672.8664  -792.8269  -496.8219 H6            1 RES     
   16742 H6         671.5916  -795.1763  -498.3429 H6            1 RES     
   16743 H6         671.3047  -794.6349  -496.6560 H6            1 RES     
   16744 H6         670.4828  -793.1746  -499.2357 H6            1 RES     
   16745 H6         669.4717  -793.9319  -497.9662 H6            1 RES     
   16746 H6         670.5285  -792.1130  -496.3223 H6            1 RES     
   16747 H6         671.2355  -791.4042  -497.8145 H6            1 RES     
   16748 H6         668.8287  -791.2747  -498.7607 H6            1 RES     
   16749 H6         669.2451  -790.1669  -497.4034 H6            1 RES     
   16750 H6         667.7990  -792.8505  -496.9300 H6            1 RES     
   16751 H6         668.2461  -791.5836  -495.7273 H6            1 RES     
   16752 H6         666.7987  -789.9559  -497.0152 H6            1 RES     
   16753 H6         666.2940  -791.3418  -498.0942 H6            1 RES     
   16754 H6         665.5733  -792.5405  -495.9116 H6            1 RES     
   16755 H6         665.8842  -790.9929  -495.0534 H6            1 RES     
   16756 H6         663.7362  -791.6352  -497.1995 H6            1 RES     
   16757 H6         663.5472  -791.3540  -495.4442 H6            1 RES     
   16758 H6         664.2894  -788.9187  -495.8108 H6            1 RES     
   16759 H6         662.7200  -789.4696  -496.4485 H6            1 RES     
   16760 H6         665.2292  -789.1258  -498.1529 H6            1 RES     
   16761 H6         663.6752  -789.7267  -498.7803 H6            1 RES     
   16762 H6         664.3336  -787.3342  -499.2403 H6            1 RES     
   16763 H6         664.1537  -786.9358  -497.5127 H6            1 RES     
   16764 H6         662.2637  -786.2276  -498.9866 H6            1 RES     
   16765 H6         662.0047  -787.9078  -499.5494 H6            1 RES     
   16766 H6         660.2589  -787.1325  -497.9986 H6            1 RES     
   16767 H6         661.0912  -788.5399  -497.3328 H6            1 RES     
   16768 H6         661.6069  -785.5802  -496.5743 H6            1 RES     
   16769 H6         660.6964  -786.7927  -495.5947 H6            1 RES     
   16770 H6         662.4651  -786.9949  -495.8421 H6            1 RES     
   16771 C0         676.0693  -793.1828  -498.2027 C0            1 RES     
   16772 C0         676.2027  -793.3493  -496.6690 C0            1 RES     
   16773 C0         677.2548  -794.3510  -496.1458 C0            1 RES     
   16774 C0         676.9059  -795.8587  -496.2102 C0            1 RES     
   16775 C0         675.5166  -796.1733  -495.6174 C0            1 RES     
   16776 C0         675.2644  -797.6499  -495.2800 C0            1 RES     
   16777 C0         675.9024  -798.0391  -493.9364 C0            1 RES     
   16778 C0         675.5718  -799.4884  -493.5506 C0            1 RES     
   16779 C0         676.0588  -799.7891  -492.1269 C0            1 RES     
   16780 C0         676.0497  -801.2687  -491.6856 C0            1 RES     
   16781 C0         674.7022  -802.0180  -491.6118 C0            1 RES     
   16782 C0         674.1745  -802.5098  -492.9751 C0            1 RES     
   16783 C0         672.8788  -803.3464  -492.9119 C0            1 RES     
   16784 C0         673.0115  -804.8454  -492.5442 C0            1 RES     
   16785 C0         673.4564  -805.2178  -491.1215 C0            1 RES     
   16786 C0         672.5517  -804.6262  -490.0424 C0            1 RES     
   16787 H6         675.9971  -794.1703  -498.7075 H6            1 RES     
   16788 H6         677.0308  -792.7237  -498.5250 H6            1 RES     
   16789 H6         676.5291  -792.3586  -496.2903 H6            1 RES     
   16790 H6         675.2496  -793.5859  -496.1774 H6            1 RES     
   16791 H6         678.2429  -794.1621  -496.6174 H6            1 RES     
   16792 H6         677.3626  -794.1261  -495.0609 H6            1 RES     
   16793 H6         676.9489  -796.2439  -497.2520 H6            1 RES     
   16794 H6         677.6923  -796.3786  -495.6230 H6            1 RES     
   16795 H6         675.3148  -795.5701  -494.7048 H6            1 RES     
   16796 H6         674.7875  -795.8940  -496.3895 H6            1 RES     
   16797 H6         675.5942  -798.3069  -496.1144 H6            1 RES     
   16798 H6         674.1672  -797.7772  -495.1540 H6            1 RES     
   16799 H6         677.0042  -797.9076  -493.9727 H6            1 RES     
   16800 H6         675.4900  -797.3632  -493.1530 H6            1 RES     
   16801 H6         674.4715  -799.6078  -493.5793 H6            1 RES     
   16802 H6         676.0563  -800.1708  -494.2814 H6            1 RES     
   16803 H6         677.1191  -799.4618  -492.0496 H6            1 RES     
   16804 H6         675.4647  -799.1807  -491.4087 H6            1 RES     
   16805 H6         676.7637  -801.8587  -492.2997 H6            1 RES     
   16806 H6         676.4523  -801.2499  -490.6479 H6            1 RES     
   16807 H6         673.9446  -801.4054  -491.0765 H6            1 RES     
   16808 H6         674.9080  -802.8998  -490.9922 H6            1 RES     
   16809 H6         673.9231  -801.6264  -493.5788 H6            1 RES     
   16810 H6         674.9526  -803.0826  -493.5244 H6            1 RES     
   16811 H6         672.4803  -803.3595  -493.9512 H6            1 RES     
   16812 H6         672.1162  -802.8341  -492.2879 H6            1 RES     
   16813 H6         672.0081  -805.3007  -492.6984 H6            1 RES     
   16814 H6         673.7065  -805.3304  -493.2641 H6            1 RES     
   16815 H6         673.4210  -806.3258  -491.0348 H6            1 RES     
   16816 H6         674.5096  -804.9378  -490.9462 H6            1 RES     
   16817 H6         671.5034  -804.9603  -490.1946 H6            1 RES     
   16818 H6         672.8938  -804.9709  -489.0441 H6            1 RES     
   16819 H6         672.5887  -803.5179  -490.0585 H6            1 RES     
   16820 C0         678.8257  -793.2129  -510.8293 C0            1 RES     
   16821 C1         678.4714  -792.2230  -509.7002 C1            1 RES     
   16822 C1         678.9610  -790.8463  -509.9187 C1            1 RES     
   16823 S2         679.3664  -790.2100  -508.2851 S2            1 RES     
   16824 C1         677.9788  -791.2382  -507.7546 C1            1 RES     
   16825 C1         677.8069  -792.3509  -508.5567 C1            1 RES     
   16826 C1         679.9573  -791.1058  -510.9474 C1            1 RES     
   16827 C1         679.8993  -792.3552  -511.4935 C1            1 RES     
   16828 C1         680.8237  -792.5340  -512.5384 C1            1 RES     
   16829 C1         681.5557  -791.3495  -512.7930 C1            1 RES     
   16830 S2         681.0458  -790.1294  -511.7272 S2            1 RES     
   16831 H3         677.3004  -793.2350  -508.2060 H3            1 RES     
   16832 H3         680.9448  -793.4582  -513.0897 H3            1 RES     
   16833 N4         683.2872  -792.2465  -514.2976 N4            1 RES     
   16834 C1         684.3240  -792.1414  -515.1811 C1            1 RES     
   16835 C1         684.7501  -790.8899  -515.6422 C1            1 RES     
   16836 C1         684.0907  -789.7573  -515.1815 C1            1 RES     
   16837 N4         684.4020  -788.4976  -515.5736 N4            1 RES     
   16838 S2         683.3092  -787.5884  -514.7328 S2            1 RES     
   16839 N4         682.4495  -788.7067  -513.8729 N4            1 RES     
   16840 C1         683.0256  -789.8793  -514.2481 C1            1 RES     
   16841 C1         682.6268  -791.1576  -513.8018 C1            1 RES     
   16842 H5         684.8281  -793.0352  -515.5253 H5            1 RES     
   16843 C0         677.6222  -793.3661  -511.8152 C0            1 RES     
   16844 C0         676.3892  -794.0210  -511.1844 C0            1 RES     
   16845 C0         675.1276  -794.0652  -512.0521 C0            1 RES     
   16846 C0         674.5468  -792.7015  -512.4588 C0            1 RES     
   16847 C0         674.4472  -791.7031  -511.2872 C0            1 RES     
   16848 C0         673.6075  -790.4717  -511.6477 C0            1 RES     
   16849 C0         672.1067  -790.7872  -511.5483 C0            1 RES     
   16850 C0         671.2499  -789.5916  -511.9665 C0            1 RES     
   16851 C0         669.7749  -789.8551  -511.6480 C0            1 RES     
   16852 C0         668.7548  -788.8821  -512.2724 C0            1 RES     
   16853 C0         668.8890  -787.3797  -511.9531 C0            1 RES     
   16854 C0         669.9535  -786.6553  -512.8073 C0            1 RES     
   16855 C0         670.0681  -785.1372  -512.5644 C0            1 RES     
   16856 C0         669.0341  -784.2227  -513.2644 C0            1 RES     
   16857 C0         667.5639  -784.3128  -512.8292 C0            1 RES     
   16858 C0         667.3721  -784.0705  -511.3333 C0            1 RES     
   16859 H6         677.3357  -792.3485  -512.1557 H6            1 RES     
   16860 H6         677.9297  -793.9438  -512.7141 H6            1 RES     
   16861 H6         676.6347  -795.0588  -510.9650 H6            1 RES     
   16862 H6         676.1246  -793.5122  -510.2391 H6            1 RES     
   16863 H6         675.3027  -794.6740  -512.9654 H6            1 RES     
   16864 H6         674.3559  -794.5877  -511.4432 H6            1 RES     
   16865 H6         675.1696  -792.2385  -513.2547 H6            1 RES     
   16866 H6         673.5491  -792.9119  -512.8963 H6            1 RES     
   16867 H6         674.0224  -792.1752  -510.3743 H6            1 RES     
   16868 H6         675.4794  -791.3680  -511.0486 H6            1 RES     
   16869 H6         673.8955  -790.0964  -512.6547 H6            1 RES     
   16870 H6         673.8189  -789.6696  -510.9069 H6            1 RES     
   16871 H6         671.8317  -791.6513  -512.1880 H6            1 RES     
   16872 H6         671.8862  -791.0496  -510.4890 H6            1 RES     
   16873 H6         671.5791  -788.7045  -511.3884 H6            1 RES     
   16874 H6         671.3930  -789.4265  -513.0568 H6            1 RES     
   16875 H6         669.4989  -790.8647  -512.0252 H6            1 RES     
   16876 H6         669.6561  -789.8640  -510.5413 H6            1 RES     
   16877 H6         668.7174  -789.0153  -513.3751 H6            1 RES     
   16878 H6         667.7711  -789.2147  -511.8716 H6            1 RES     
   16879 H6         669.0561  -787.2269  -510.8649 H6            1 RES     
   16880 H6         667.9096  -786.9528  -512.2005 H6            1 RES     
   16881 H6         670.9404  -787.0634  -512.5485 H6            1 RES     
   16882 H6         669.7925  -786.8421  -513.8912 H6            1 RES     
   16883 H6         671.0419  -784.8340  -513.0107 H6            1 RES     
   16884 H6         670.1395  -784.9250  -511.4768 H6            1 RES     
   16885 H6         669.3633  -783.1756  -513.0839 H6            1 RES     
   16886 H6         669.0835  -784.3993  -514.3612 H6            1 RES     
   16887 H6         666.9977  -783.5338  -513.3842 H6            1 RES     
   16888 H6         667.1183  -785.2767  -513.1300 H6            1 RES     
   16889 H6         667.7735  -783.0742  -511.0513 H6            1 RES     
   16890 H6         666.2893  -784.1012  -511.0903 H6            1 RES     
   16891 H6         667.8831  -784.8526  -510.7358 H6            1 RES     
   16892 C0         679.4587  -794.5892  -510.3646 C0            1 RES     
   16893 C0         678.8073  -795.2365  -509.1179 C0            1 RES     
   16894 C0         679.2633  -796.6594  -508.7284 C0            1 RES     
   16895 C0         678.7018  -797.8446  -509.5523 C0            1 RES     
   16896 C0         677.1672  -797.7898  -509.7030 C0            1 RES     
   16897 C0         676.5025  -799.1012  -510.1460 C0            1 RES     
   16898 C0         676.3308  -800.0735  -508.9673 C0            1 RES     
   16899 C0         675.5811  -801.3464  -509.3871 C0            1 RES     
   16900 C0         675.2590  -802.2088  -508.1596 C0            1 RES     
   16901 C0         674.7522  -803.6422  -508.4291 C0            1 RES     
   16902 C0         673.4170  -803.8338  -509.1795 C0            1 RES     
   16903 C0         673.5211  -803.6742  -510.7100 C0            1 RES     
   16904 C0         672.2183  -803.9587  -511.4875 C0            1 RES     
   16905 C0         671.8644  -805.4393  -511.7745 C0            1 RES     
   16906 C0         671.4928  -806.3495  -510.5937 C0            1 RES     
   16907 C0         670.3172  -805.8144  -509.7785 C0            1 RES     
   16908 H6         679.4460  -795.2865  -511.2301 H6            1 RES     
   16909 H6         680.5257  -794.4399  -510.0846 H6            1 RES     
   16910 H6         679.0987  -794.5922  -508.2627 H6            1 RES     
   16911 H6         677.7100  -795.2423  -509.1599 H6            1 RES     
   16912 H6         680.3718  -796.7144  -508.6775 H6            1 RES     
   16913 H6         678.8807  -796.8195  -507.6953 H6            1 RES     
   16914 H6         679.1617  -797.8938  -510.5631 H6            1 RES     
   16915 H6         678.9934  -798.7637  -509.0013 H6            1 RES     
   16916 H6         676.6755  -797.4521  -508.7641 H6            1 RES     
   16917 H6         676.9662  -797.0497  -510.4888 H6            1 RES     
   16918 H6         677.0560  -799.5562  -510.9964 H6            1 RES     
   16919 H6         675.4777  -798.8502  -510.4964 H6            1 RES     
   16920 H6         677.3174  -800.3488  -508.5392 H6            1 RES     
   16921 H6         675.7346  -799.5566  -508.1812 H6            1 RES     
   16922 H6         674.6292  -801.0417  -509.8633 H6            1 RES     
   16923 H6         676.2126  -801.9107  -510.1062 H6            1 RES     
   16924 H6         676.1939  -802.3297  -507.5690 H6            1 RES     
   16925 H6         674.5252  -801.6661  -507.5225 H6            1 RES     
   16926 H6         675.5425  -804.2432  -508.9284 H6            1 RES     
   16927 H6         674.6046  -804.0781  -507.4154 H6            1 RES     
   16928 H6         672.6314  -803.1738  -508.7516 H6            1 RES     
   16929 H6         673.1254  -804.8702  -508.9679 H6            1 RES     
   16930 H6         673.7664  -802.6245  -510.9244 H6            1 RES     
   16931 H6         674.3387  -804.3024  -511.1250 H6            1 RES     
   16932 H6         672.3713  -803.5188  -512.4986 H6            1 RES     
   16933 H6         671.3665  -803.4115  -511.0309 H6            1 RES     
   16934 H6         670.9901  -805.4298  -512.4625 H6            1 RES     
   16935 H6         672.7094  -805.9094  -512.3235 H6            1 RES     
   16936 H6         671.2053  -807.3407  -511.0076 H6            1 RES     
   16937 H6         672.3654  -806.5383  -509.9448 H6            1 RES     
   16938 H6         669.4271  -805.6820  -510.4295 H6            1 RES     
   16939 H6         670.0657  -806.5377  -508.9746 H6            1 RES     
   16940 H6         670.5723  -804.8443  -509.3054 H6            1 RES     
   16941 C0         687.8503  -791.9048  -519.8201 C0            1 RES     
   16942 C1         687.1997  -791.2336  -518.5927 C1            1 RES     
   16943 C1         687.9915  -790.1321  -518.0074 C1            1 RES     
   16944 S2         687.6815  -790.1991  -516.2361 S2            1 RES     
   16945 C1         686.0394  -790.7568  -516.7423 C1            1 RES     
   16946 C1         686.0591  -791.4406  -517.9435 C1            1 RES     
   16947 C1         689.2861  -790.4221  -518.6057 C1            1 RES     
   16948 C1         689.2543  -791.3436  -519.6120 C1            1 RES     
   16949 C1         690.5108  -791.5314  -520.2155 C1            1 RES     
   16950 C1         691.4900  -790.6775  -519.6536 C1            1 RES     
   16951 S2         690.7812  -789.7276  -518.4372 S2            1 RES     
   16952 H3         685.2855  -792.1398  -518.2154 H3            1 RES     
   16953 H3         690.6982  -792.2296  -521.0218 H3            1 RES     
   16954 N4         693.5177  -791.6590  -520.6496 N4            1 RES     
   16955 C1         694.8486  -791.6844  -520.9574 C1            1 RES     
   16956 C1         695.6776  -790.5990  -520.6495 C1            1 RES     
   16957 C1         695.1130  -789.4936  -520.0256 C1            1 RES     
   16958 N4         695.8123  -788.3792  -519.6990 N4            1 RES     
   16959 S2         694.6514  -787.4248  -519.0141 S2            1 RES     
   16960 N4         693.2863  -788.3518  -519.0934 N4            1 RES     
   16961 C1         693.7308  -789.4873  -519.6940 C1            1 RES     
   16962 C1         692.9270  -790.6021  -520.0156 C1            1 RES     
   16963 H5         695.2709  -792.5566  -521.4396 H5            1 RES     
   16964 C0         687.2611  -791.3105  -521.1405 C0            1 RES     
   16965 C0         685.7760  -791.6245  -521.3479 C0            1 RES     
   16966 C0         685.1017  -790.9475  -522.5452 C0            1 RES     
   16967 C0         685.0641  -789.4113  -522.5118 C0            1 RES     
   16968 C0         684.6130  -788.8381  -521.1527 C0            1 RES     
   16969 C0         684.3059  -787.3378  -521.2321 C0            1 RES     
   16970 C0         682.9117  -787.0978  -521.8321 C0            1 RES     
   16971 C0         682.6105  -785.6059  -521.9807 C0            1 RES     
   16972 C0         681.1437  -785.3940  -522.3679 C0            1 RES     
   16973 C0         680.7579  -783.9784  -522.8417 C0            1 RES     
   16974 C0         681.0126  -782.7944  -521.8875 C0            1 RES     
   16975 C0         682.4736  -782.2918  -521.8967 C0            1 RES     
   16976 C0         682.7512  -781.0643  -521.0061 C0            1 RES     
   16977 C0         682.3782  -779.6731  -521.5725 C0            1 RES     
   16978 C0         680.8935  -779.3441  -521.7874 C0            1 RES     
   16979 C0         680.0612  -779.5004  -520.5162 C0            1 RES     
   16980 H6         687.3765  -790.2069  -521.0926 H6            1 RES     
   16981 H6         687.8418  -791.6683  -522.0186 H6            1 RES     
   16982 H6         685.6793  -792.6953  -521.5196 H6            1 RES     
   16983 H6         685.1965  -791.3568  -520.4451 H6            1 RES     
   16984 H6         685.5698  -791.2802  -523.4969 H6            1 RES     
   16985 H6         684.0480  -791.3065  -522.5459 H6            1 RES     
   16986 H6         686.0682  -788.9954  -522.7456 H6            1 RES     
   16987 H6         684.3779  -789.1041  -523.3278 H6            1 RES     
   16988 H6         683.7209  -789.3687  -520.7537 H6            1 RES     
   16989 H6         685.4482  -788.9891  -520.4356 H6            1 RES     
   16990 H6         685.1071  -786.8151  -521.8001 H6            1 RES     
   16991 H6         684.2889  -786.9247  -520.1996 H6            1 RES     
   16992 H6         682.8137  -787.5723  -522.8305 H6            1 RES     
   16993 H6         682.1653  -787.5610  -521.1480 H6            1 RES     
   16994 H6         682.7887  -785.1128  -521.0037 H6            1 RES     
   16995 H6         683.2864  -785.1914  -522.7603 H6            1 RES     
   16996 H6         680.8910  -786.0739  -523.2115 H6            1 RES     
   16997 H6         680.5110  -785.6843  -521.4993 H6            1 RES     
   16998 H6         681.2271  -783.7578  -523.8247 H6            1 RES     
   16999 H6         679.6590  -784.0311  -523.0110 H6            1 RES     
   17000 H6         680.6652  -783.0409  -520.8608 H6            1 RES     
   17001 H6         680.3751  -781.9870  -522.2675 H6            1 RES     
   17002 H6         683.1158  -783.0887  -521.4965 H6            1 RES     
   17003 H6         682.8176  -782.0789  -522.9321 H6            1 RES     
   17004 H6         683.8576  -781.0207  -520.8907 H6            1 RES     
   17005 H6         682.3337  -781.2232  -519.9896 H6            1 RES     
   17006 H6         682.7777  -778.9216  -520.8563 H6            1 RES     
   17007 H6         682.9105  -779.5242  -522.5375 H6            1 RES     
   17008 H6         680.8255  -778.2860  -522.1209 H6            1 RES     
   17009 H6         680.4681  -779.9442  -522.6102 H6            1 RES     
   17010 H6         680.4641  -778.8501  -519.7112 H6            1 RES     
   17011 H6         679.0117  -779.2038  -520.7233 H6            1 RES     
   17012 H6         680.0609  -780.5537  -520.1689 H6            1 RES     
   17013 C0         687.9024  -793.4883  -519.7918 C0            1 RES     
   17014 C0         686.6224  -794.1892  -519.2740 C0            1 RES     
   17015 C0         686.5498  -795.7270  -519.3924 C0            1 RES     
   17016 C0         686.2321  -796.3263  -520.7849 C0            1 RES     
   17017 C0         685.0005  -795.6733  -521.4462 C0            1 RES     
   17018 C0         684.3877  -796.4584  -522.6149 C0            1 RES     
   17019 C0         683.4879  -797.6015  -522.1170 C0            1 RES     
   17020 C0         682.7987  -798.3284  -523.2812 C0            1 RES     
   17021 C0         681.7681  -799.3339  -522.7510 C0            1 RES     
   17022 C0         681.1839  -800.3356  -523.7705 C0            1 RES     
   17023 C0         680.3618  -799.7964  -524.9605 C0            1 RES     
   17024 C0         681.2138  -799.2428  -526.1209 C0            1 RES     
   17025 C0         680.4143  -798.7896  -527.3612 C0            1 RES     
   17026 C0         679.9601  -799.8836  -528.3595 C0            1 RES     
   17027 C0         678.9002  -800.8994  -527.9064 C0            1 RES     
   17028 C0         677.6078  -800.2377  -527.4326 C0            1 RES     
   17029 H6         688.1696  -793.8446  -520.8102 H6            1 RES     
   17030 H6         688.7114  -793.8283  -519.1070 H6            1 RES     
   17031 H6         686.5885  -793.9783  -518.1851 H6            1 RES     
   17032 H6         685.7015  -793.7813  -519.7117 H6            1 RES     
   17033 H6         687.4642  -796.1953  -518.9692 H6            1 RES     
   17034 H6         685.6971  -796.0329  -518.7455 H6            1 RES     
   17035 H6         687.0997  -796.2400  -521.4744 H6            1 RES     
   17036 H6         686.0395  -797.4067  -520.6146 H6            1 RES     
   17037 H6         684.1962  -795.4719  -520.7046 H6            1 RES     
   17038 H6         685.3481  -794.7149  -521.8540 H6            1 RES     
   17039 H6         685.1798  -796.8120  -523.3108 H6            1 RES     
   17040 H6         683.7264  -795.7595  -523.1718 H6            1 RES     
   17041 H6         684.0746  -798.3309  -521.5202 H6            1 RES     
   17042 H6         682.7021  -797.1587  -521.4636 H6            1 RES     
   17043 H6         682.2704  -797.5716  -523.8927 H6            1 RES     
   17044 H6         683.5735  -798.8457  -523.8866 H6            1 RES     
   17045 H6         682.2630  -799.9558  -521.9726 H6            1 RES     
   17046 H6         680.9407  -798.7743  -522.2600 H6            1 RES     
   17047 H6         681.9825  -801.0079  -524.1518 H6            1 RES     
   17048 H6         680.4880  -800.9651  -523.1715 H6            1 RES     
   17049 H6         679.6129  -799.0527  -524.6115 H6            1 RES     
   17050 H6         679.8091  -800.6676  -525.3340 H6            1 RES     
   17051 H6         681.7307  -798.3422  -525.7609 H6            1 RES     
   17052 H6         681.9901  -799.9740  -526.4340 H6            1 RES     
   17053 H6         681.1143  -798.1593  -527.9543 H6            1 RES     
   17054 H6         679.5730  -798.1298  -527.0607 H6            1 RES     
   17055 H6         679.5421  -799.3535  -529.2438 H6            1 RES     
   17056 H6         680.8548  -800.4457  -528.7061 H6            1 RES     
   17057 H6         678.6590  -801.5480  -528.7768 H6            1 RES     
   17058 H6         679.3006  -801.5758  -527.1315 H6            1 RES     
   17059 H6         677.1824  -799.6041  -528.2396 H6            1 RES     
   17060 H6         676.8673  -801.0213  -527.1677 H6            1 RES     
   17061 H6         677.7889  -799.6133  -526.5340 H6            1 RES     
   17062 C0         700.1327  -791.3972  -523.4083 C0            1 RES     
   17063 C1         699.1193  -790.9282  -522.3436 C1            1 RES     
   17064 C1         699.7320  -790.4167  -521.1003 C1            1 RES     
   17065 S2         698.6067  -790.8842  -519.7763 S2            1 RES     
   17066 C1         697.3336  -790.6282  -521.0325 C1            1 RES     
   17067 C1         697.7917  -790.8857  -522.3111 C1            1 RES     
   17068 C1         701.0704  -790.9693  -521.2468 C1            1 RES     
   17069 C1         701.3449  -791.4754  -522.4842 C1            1 RES     
   17070 C1         702.6730  -791.9223  -522.6052 C1            1 RES     
   17071 C1         703.4092  -791.6910  -521.4186 C1            1 RES     
   17072 S2         702.4055  -790.9513  -520.2653 S2            1 RES     
   17073 H3         697.1230  -791.1408  -523.1167 H3            1 RES     
   17074 H3         703.0831  -792.3699  -523.5020 H3            1 RES     
   17075 N4         705.4311  -793.0048  -521.9215 N4            1 RES     
   17076 C1         706.7131  -793.4225  -521.7014 C1            1 RES     
   17077 C1         707.4872  -792.8572  -520.6809 C1            1 RES     
   17078 C1         706.9205  -791.8584  -519.8990 C1            1 RES     
   17079 N4         707.5802  -791.2256  -518.8981 N4            1 RES     
   17080 S2         706.4443  -790.1605  -518.3477 S2            1 RES     
   17081 N4         705.1326  -790.4576  -519.3071 N4            1 RES     
   17082 C1         705.5794  -791.4459  -520.1264 C1            1 RES     
   17083 C1         704.8277  -792.0424  -521.1616 C1            1 RES     
   17084 H5         707.1355  -794.2050  -522.3185 H5            1 RES     
   17085 C0         700.3749  -790.2684  -524.4624 C0            1 RES     
   17086 C0         699.1411  -789.9425  -525.3099 C0            1 RES     
   17087 C0         699.2677  -788.7459  -526.2579 C0            1 RES     
   17088 C0         699.5187  -787.3853  -525.5886 C0            1 RES     
   17089 C0         698.5941  -787.1145  -524.3839 C0            1 RES     
   17090 C0         698.6610  -785.6539  -523.9216 C0            1 RES     
   17091 C0         697.8005  -784.7563  -524.8245 C0            1 RES     
   17092 C0         697.9040  -783.2850  -524.4208 C0            1 RES     
   17093 C0         696.8740  -782.4483  -525.1861 C0            1 RES     
   17094 C0         697.0457  -780.9178  -525.1150 C0            1 RES     
   17095 C0         697.0381  -780.2459  -523.7272 C0            1 RES     
   17096 C0         698.3917  -780.3327  -522.9872 C0            1 RES     
   17097 C0         698.4426  -779.6121  -521.6252 C0            1 RES     
   17098 C0         698.6647  -778.0804  -521.6364 C0            1 RES     
   17099 C0         697.5599  -777.1846  -522.2157 C0            1 RES     
   17100 C0         696.2089  -777.3931  -521.5342 C0            1 RES     
   17101 H6         700.6658  -789.3500  -523.9098 H6            1 RES     
   17102 H6         701.2225  -790.5379  -525.1298 H6            1 RES     
   17103 H6         698.9319  -790.8024  -525.9442 H6            1 RES     
   17104 H6         698.2652  -789.7604  -524.6602 H6            1 RES     
   17105 H6         700.0589  -788.9305  -527.0166 H6            1 RES     
   17106 H6         698.2957  -788.6781  -526.7963 H6            1 RES     
   17107 H6         700.5713  -787.3157  -525.2382 H6            1 RES     
   17108 H6         699.3808  -786.6232  -526.3831 H6            1 RES     
   17109 H6         697.5360  -787.3749  -524.6058 H6            1 RES     
   17110 H6         698.9372  -787.7639  -523.5502 H6            1 RES     
   17111 H6         699.7205  -785.3175  -523.8761 H6            1 RES     
   17112 H6         698.2333  -785.5868  -522.8971 H6            1 RES     
   17113 H6         698.1016  -784.8457  -525.8888 H6            1 RES     
   17114 H6         696.7440  -785.0943  -524.7284 H6            1 RES     
   17115 H6         697.6855  -783.2022  -523.3369 H6            1 RES     
   17116 H6         698.9363  -782.9361  -524.6424 H6            1 RES     
   17117 H6         696.9286  -782.7082  -526.2665 H6            1 RES     
   17118 H6         695.8604  -782.7295  -524.8221 H6            1 RES     
   17119 H6         697.9605  -780.6048  -525.6630 H6            1 RES     
   17120 H6         696.1752  -780.5132  -525.6785 H6            1 RES     
   17121 H6         696.2018  -780.6390  -523.1096 H6            1 RES     
   17122 H6         696.8310  -779.1883  -523.9298 H6            1 RES     
   17123 H6         698.5952  -781.3887  -522.7617 H6            1 RES     
   17124 H6         699.2227  -779.9654  -523.6276 H6            1 RES     
   17125 H6         699.3435  -780.0115  -521.1072 H6            1 RES     
   17126 H6         697.5681  -779.8993  -521.0042 H6            1 RES     
   17127 H6         698.8108  -777.7734  -520.5772 H6            1 RES     
   17128 H6         699.6110  -777.8592  -522.1771 H6            1 RES     
   17129 H6         697.8671  -776.1271  -522.0649 H6            1 RES     
   17130 H6         697.4721  -777.3170  -523.3078 H6            1 RES     
   17131 H6         696.2957  -777.2028  -520.4435 H6            1 RES     
   17132 H6         695.4668  -776.6869  -521.9620 H6            1 RES     
   17133 H6         695.8376  -778.4254  -521.6963 H6            1 RES     
   17134 C0         699.8555  -792.8230  -524.0415 C0            1 RES     
   17135 C0         698.3753  -793.1272  -524.3792 C0            1 RES     
   17136 C0         698.0703  -794.4241  -525.1599 C0            1 RES     
   17137 C0         698.3473  -794.4274  -526.6838 C0            1 RES     
   17138 C0         697.7358  -793.2064  -527.4019 C0            1 RES     
   17139 C0         697.6168  -793.3320  -528.9276 C0            1 RES     
   17140 C0         696.3857  -794.1597  -529.3317 C0            1 RES     
   17141 C0         696.2105  -794.2074  -530.8568 C0            1 RES     
   17142 C0         694.8786  -794.8753  -531.2232 C0            1 RES     
   17143 C0         694.6707  -795.2465  -532.7074 C0            1 RES     
   17144 C0         694.6404  -794.1199  -533.7621 C0            1 RES     
   17145 C0         696.0327  -793.6004  -534.1753 C0            1 RES     
   17146 C0         696.0291  -792.5430  -535.2999 C0            1 RES     
   17147 C0         695.9045  -793.0496  -536.7586 C0            1 RES     
   17148 C0         694.5824  -793.6932  -537.2039 C0            1 RES     
   17149 C0         693.3777  -792.7764  -537.0011 C0            1 RES     
   17150 H6         700.5019  -792.9355  -524.9387 H6            1 RES     
   17151 H6         700.1548  -793.6203  -523.3246 H6            1 RES     
   17152 H6         697.8667  -793.2492  -523.4006 H6            1 RES     
   17153 H6         697.8752  -792.3020  -524.9035 H6            1 RES     
   17154 H6         698.5600  -795.2961  -524.6758 H6            1 RES     
   17155 H6         696.9712  -794.5734  -525.0663 H6            1 RES     
   17156 H6         699.4368  -794.4650  -526.9010 H6            1 RES     
   17157 H6         697.8907  -795.3615  -527.0742 H6            1 RES     
   17158 H6         696.7316  -792.9532  -526.9958 H6            1 RES     
   17159 H6         698.4151  -792.3668  -527.2036 H6            1 RES     
   17160 H6         698.5591  -793.7287  -529.3653 H6            1 RES     
   17161 H6         697.4528  -792.3094  -529.3316 H6            1 RES     
   17162 H6         696.4609  -795.1938  -528.9350 H6            1 RES     
   17163 H6         695.4864  -793.6741  -528.8889 H6            1 RES     
   17164 H6         696.1977  -793.1661  -531.2326 H6            1 RES     
   17165 H6         697.0629  -794.7689  -531.2957 H6            1 RES     
   17166 H6         694.8092  -795.8344  -530.6639 H6            1 RES     
   17167 H6         694.0441  -794.2235  -530.8801 H6            1 RES     
   17168 H6         695.4060  -796.0196  -533.0183 H6            1 RES     
   17169 H6         693.6657  -795.7248  -532.7344 H6            1 RES     
   17170 H6         693.9770  -793.2923  -533.4293 H6            1 RES     
   17171 H6         694.1761  -794.5776  -534.6446 H6            1 RES     
   17172 H6         696.4786  -793.0996  -533.3044 H6            1 RES     
   17173 H6         696.7050  -794.4374  -534.4630 H6            1 RES     
   17174 H6         697.0349  -792.0673  -535.2663 H6            1 RES     
   17175 H6         695.2934  -791.7417  -535.0768 H6            1 RES     
   17176 H6         696.0725  -792.1684  -537.4167 H6            1 RES     
   17177 H6         696.7271  -793.7706  -536.9587 H6            1 RES     
   17178 H6         694.6656  -793.9218  -538.2889 H6            1 RES     
   17179 H6         694.4231  -794.6649  -536.7051 H6            1 RES     
   17180 H6         693.5226  -791.8240  -537.5538 H6            1 RES     
   17181 H6         692.4643  -793.2762  -537.3865 H6            1 RES     
   17182 H6         693.2247  -792.5556  -535.9251 H6            1 RES     
   17183 C0         712.4664  -794.3763  -521.6785 C0            1 RES     
   17184 C1         711.1808  -793.9056  -520.9672 C1            1 RES     
   17185 C1         711.2107  -794.0436  -519.4965 C1            1 RES     
   17186 S2         709.5229  -794.4354  -519.0111 S2            1 RES     
   17187 C1         709.0830  -793.3748  -520.4059 C1            1 RES     
   17188 C1         710.0364  -793.3930  -521.4067 C1            1 RES     
   17189 C1         712.3194  -794.9771  -519.3651 C1            1 RES     
   17190 C1         713.0476  -795.1600  -520.5048 C1            1 RES     
   17191 C1         714.1560  -796.0039  -520.3109 C1            1 RES     
   17192 C1         714.2642  -796.4178  -518.9616 C1            1 RES     
   17193 S2         712.9972  -795.7376  -518.0580 S2            1 RES     
   17194 H3         709.7992  -793.1370  -522.4262 H3            1 RES     
   17195 H3         714.8488  -796.2850  -521.0943 H3            1 RES     
   17196 N4         715.9806  -798.1682  -519.2005 N4            1 RES     
   17197 C1         716.8920  -799.0700  -518.7288 C1            1 RES     
   17198 C1         717.1772  -799.1537  -517.3605 C1            1 RES     
   17199 C1         716.5125  -798.2949  -516.4942 C1            1 RES     
   17200 N4         716.7221  -798.2715  -515.1552 N4            1 RES     
   17201 S2         715.6934  -797.0781  -514.6598 S2            1 RES     
   17202 N4         714.9709  -796.5792  -516.0592 N4            1 RES     
   17203 C1         715.5528  -797.3740  -516.9957 C1            1 RES     
   17204 C1         715.2878  -797.3217  -518.3812 C1            1 RES     
   17205 H5         717.3966  -799.7336  -519.4191 H5            1 RES     
   17206 C0         713.3976  -793.1575  -521.9808 C0            1 RES     
   17207 C0         712.8095  -792.1697  -522.9933 C0            1 RES     
   17208 C0         713.6041  -790.8800  -523.2210 C0            1 RES     
   17209 C0         713.7638  -789.9670  -521.9950 C0            1 RES     
   17210 C0         712.4487  -789.7450  -521.2200 C0            1 RES     
   17211 C0         712.5693  -788.6155  -520.1898 C0            1 RES     
   17212 C0         712.4387  -787.2427  -520.8680 C0            1 RES     
   17213 C0         712.6207  -786.0999  -519.8684 C0            1 RES     
   17214 C0         712.2674  -784.7596  -520.5205 C0            1 RES     
   17215 C0         712.6783  -783.4915  -519.7460 C0            1 RES     
   17216 C0         712.1391  -783.3039  -518.3138 C0            1 RES     
   17217 C0         712.9277  -784.0925  -517.2443 C0            1 RES     
   17218 C0         712.4604  -783.8757  -515.7913 C0            1 RES     
   17219 C0         712.9542  -782.6007  -515.0659 C0            1 RES     
   17220 C0         712.4592  -781.2356  -515.5663 C0            1 RES     
   17221 C0         710.9357  -781.1271  -515.5843 C0            1 RES     
   17222 H6         713.5612  -792.6153  -521.0254 H6            1 RES     
   17223 H6         714.3901  -793.5085  -522.3387 H6            1 RES     
   17224 H6         712.7662  -792.6661  -523.9614 H6            1 RES     
   17225 H6         711.7841  -791.8804  -522.6976 H6            1 RES     
   17226 H6         714.6084  -791.1086  -523.6388 H6            1 RES     
   17227 H6         713.0422  -790.3068  -523.9923 H6            1 RES     
   17228 H6         714.5114  -790.3930  -521.2911 H6            1 RES     
   17229 H6         714.1740  -789.0097  -522.3776 H6            1 RES     
   17230 H6         711.5979  -789.5234  -521.9008 H6            1 RES     
   17231 H6         712.2176  -790.6892  -520.6820 H6            1 RES     
   17232 H6         713.5205  -788.7186  -519.6220 H6            1 RES     
   17233 H6         711.7263  -788.7017  -519.4695 H6            1 RES     
   17234 H6         713.1880  -787.1183  -521.6770 H6            1 RES     
   17235 H6         711.4221  -787.1839  -521.3183 H6            1 RES     
   17236 H6         711.9315  -786.2661  -519.0158 H6            1 RES     
   17237 H6         713.6787  -786.1034  -519.5262 H6            1 RES     
   17238 H6         712.7801  -784.6910  -521.5055 H6            1 RES     
   17239 H6         711.1704  -784.7451  -520.7092 H6            1 RES     
   17240 H6         713.7848  -783.3877  -519.7321 H6            1 RES     
   17241 H6         712.2810  -782.6505  -520.3574 H6            1 RES     
   17242 H6         711.0510  -783.5276  -518.2756 H6            1 RES     
   17243 H6         712.2645  -782.2345  -518.1056 H6            1 RES     
   17244 H6         712.7887  -785.1659  -517.4341 H6            1 RES     
   17245 H6         714.0172  -783.8830  -517.3143 H6            1 RES     
   17246 H6         712.9067  -784.7098  -515.2043 H6            1 RES     
   17247 H6         711.3586  -783.9929  -515.7191 H6            1 RES     
   17248 H6         712.6327  -782.6947  -514.0052 H6            1 RES     
   17249 H6         714.0661  -782.5916  -515.0737 H6            1 RES     
   17250 H6         712.8561  -780.4581  -514.8782 H6            1 RES     
   17251 H6         712.8804  -780.9990  -516.5586 H6            1 RES     
   17252 H6         710.5257  -781.3119  -514.5690 H6            1 RES     
   17253 H6         710.6421  -780.1066  -515.9079 H6            1 RES     
   17254 H6         710.4943  -781.8556  -516.2945 H6            1 RES     
   17255 C0         712.2542  -795.3481  -522.9120 C0            1 RES     
   17256 C0         711.0887  -794.9769  -523.8615 C0            1 RES     
   17257 C0         710.9483  -795.7811  -525.1722 C0            1 RES     
   17258 C0         711.9135  -795.4366  -526.3335 C0            1 RES     
   17259 C0         711.9707  -793.9235  -526.6299 C0            1 RES     
   17260 C0         712.5738  -793.5419  -527.9895 C0            1 RES     
   17261 C0         711.5515  -793.7044  -529.1263 C0            1 RES     
   17262 C0         712.1212  -793.2336  -530.4726 C0            1 RES     
   17263 C0         711.0257  -793.2294  -531.5469 C0            1 RES     
   17264 C0         711.4849  -793.0444  -533.0094 C0            1 RES     
   17265 C0         712.1826  -791.7278  -533.4124 C0            1 RES     
   17266 C0         713.6737  -791.6556  -533.0245 C0            1 RES     
   17267 C0         714.4141  -790.3894  -533.5053 C0            1 RES     
   17268 C0         714.9062  -790.3619  -534.9740 C0            1 RES     
   17269 C0         713.8614  -790.3165  -536.0996 C0            1 RES     
   17270 C0         712.9111  -789.1267  -535.9803 C0            1 RES     
   17271 H6         713.2149  -795.4192  -523.4666 H6            1 RES     
   17272 H6         712.0127  -796.3726  -522.5498 H6            1 RES     
   17273 H6         710.1615  -795.1871  -523.2893 H6            1 RES     
   17274 H6         711.0717  -793.9112  -524.1257 H6            1 RES     
   17275 H6         710.9665  -796.8726  -524.9649 H6            1 RES     
   17276 H6         709.9331  -795.5393  -525.5595 H6            1 RES     
   17277 H6         712.9431  -795.8035  -526.1316 H6            1 RES     
   17278 H6         711.5272  -795.9799  -527.2218 H6            1 RES     
   17279 H6         710.9658  -793.4529  -526.5524 H6            1 RES     
   17280 H6         712.6211  -793.4883  -525.8596 H6            1 RES     
   17281 H6         713.5128  -794.1073  -528.1770 H6            1 RES     
   17282 H6         712.8255  -792.4598  -527.9472 H6            1 RES     
   17283 H6         711.2249  -794.7620  -529.2118 H6            1 RES     
   17284 H6         710.6640  -793.0777  -528.8809 H6            1 RES     
   17285 H6         712.4927  -792.1986  -530.3440 H6            1 RES     
   17286 H6         712.9518  -793.9115  -530.7643 H6            1 RES     
   17287 H6         710.5122  -794.2158  -531.5186 H6            1 RES     
   17288 H6         710.2738  -792.4501  -531.2893 H6            1 RES     
   17289 H6         712.1129  -793.9041  -533.3281 H6            1 RES     
   17290 H6         710.5440  -793.0921  -533.6025 H6            1 RES     
   17291 H6         711.6163  -790.8527  -533.0260 H6            1 RES     
   17292 H6         712.1177  -791.7028  -534.5074 H6            1 RES     
   17293 H6         713.7367  -791.6325  -531.9275 H6            1 RES     
   17294 H6         714.2241  -792.5556  -533.3744 H6            1 RES     
   17295 H6         715.3521  -790.3463  -532.9074 H6            1 RES     
   17296 H6         713.8332  -789.4787  -533.2473 H6            1 RES     
   17297 H6         715.5362  -789.4511  -535.0813 H6            1 RES     
   17298 H6         715.5660  -791.2400  -535.1470 H6            1 RES     
   17299 H6         714.4069  -790.2293  -537.0646 H6            1 RES     
   17300 H6         713.2974  -791.2634  -536.1596 H6            1 RES     
   17301 H6         713.4848  -788.1756  -535.9784 H6            1 RES     
   17302 H6         712.2158  -789.1212  -536.8458 H6            1 RES     
   17303 H6         712.3087  -789.1926  -535.0514 H6            1 RES     
   17304 C0         721.6230  -802.0195  -517.0171 C0            1 RES     
   17305 C1         720.2734  -801.3438  -516.6969 C1            1 RES     
   17306 C1         719.5691  -801.9095  -515.5278 C1            1 RES     
   17307 S2         717.8152  -801.7824  -515.9093 S2            1 RES     
   17308 C1         718.3117  -800.2744  -516.7715 C1            1 RES     
   17309 C1         719.6032  -800.3439  -517.2594 C1            1 RES     
   17310 C1         720.2741  -803.1775  -515.4128 C1            1 RES     
   17311 C1         721.4071  -803.2693  -516.1682 C1            1 RES     
   17312 C1         722.0994  -804.4764  -515.9633 C1            1 RES     
   17313 C1         721.4665  -805.2787  -514.9838 C1            1 RES     
   17314 S2         720.0817  -804.4814  -514.4083 S2            1 RES     
   17315 H3         719.9373  -799.7311  -518.0804 H3            1 RES     
   17316 H3         723.0126  -804.7469  -516.4786 H3            1 RES     
   17317 N4         722.7099  -807.3809  -515.3020 N4            1 RES     
   17318 C1         723.0895  -808.6490  -514.9638 C1            1 RES     
   17319 C1         722.6633  -809.2299  -513.7632 C1            1 RES     
   17320 C1         721.8470  -808.4837  -512.9225 C1            1 RES     
   17321 N4         721.3908  -808.9338  -511.7280 N4            1 RES     
   17322 S2         720.5053  -807.6501  -511.1843 S2            1 RES     
   17323 N4         720.6526  -806.5337  -512.3931 N4            1 RES     
   17324 C1         721.4441  -807.1724  -513.2948 C1            1 RES     
   17325 C1         721.8897  -806.6216  -514.5157 C1            1 RES     
   17326 H5         723.7225  -809.2161  -515.6341 H5            1 RES     
   17327 C0         722.8023  -801.1940  -516.4074 C0            1 RES     
   17328 C0         722.9749  -799.8088  -517.0384 C0            1 RES     
   17329 C0         724.0154  -798.8927  -516.3865 C0            1 RES     
   17330 C0         723.7438  -798.5056  -514.9241 C0            1 RES     
   17331 C0         722.2901  -798.0575  -514.6680 C0            1 RES     
   17332 C0         722.1207  -797.4073  -513.2896 C0            1 RES     
   17333 C0         722.6003  -795.9476  -513.3128 C0            1 RES     
   17334 C0         722.5008  -795.2989  -511.9315 C0            1 RES     
   17335 C0         722.7708  -793.7942  -512.0282 C0            1 RES     
   17336 C0         722.9993  -793.0522  -510.6962 C0            1 RES     
   17337 C0         721.8893  -793.1113  -509.6278 C0            1 RES     
   17338 C0         721.8999  -794.4106  -508.7916 C0            1 RES     
   17339 C0         720.8472  -794.4763  -507.6672 C0            1 RES     
   17340 C0         721.1715  -793.7440  -506.3427 C0            1 RES     
   17341 C0         721.2525  -792.2103  -506.3549 C0            1 RES     
   17342 C0         719.9774  -791.5531  -506.8796 C0            1 RES     
   17343 H6         722.5912  -801.0560  -515.3257 H6            1 RES     
   17344 H6         723.7551  -801.7609  -516.4911 H6            1 RES     
   17345 H6         723.3040  -799.9463  -518.0671 H6            1 RES     
   17346 H6         722.0117  -799.2660  -517.0444 H6            1 RES     
   17347 H6         725.0309  -799.3382  -516.4633 H6            1 RES     
   17348 H6         724.0144  -797.9542  -516.9852 H6            1 RES     
   17349 H6         723.9647  -799.3620  -514.2506 H6            1 RES     
   17350 H6         724.4643  -797.6972  -514.6826 H6            1 RES     
   17351 H6         721.9300  -797.3508  -515.4474 H6            1 RES     
   17352 H6         721.6511  -798.9655  -514.7101 H6            1 RES     
   17353 H6         722.6439  -798.0128  -512.5166 H6            1 RES     
   17354 H6         721.0375  -797.3877  -513.0380 H6            1 RES     
   17355 H6         723.6531  -795.8730  -513.6556 H6            1 RES     
   17356 H6         721.9564  -795.3919  -514.0313 H6            1 RES     
   17357 H6         721.4705  -795.4451  -511.5485 H6            1 RES     
   17358 H6         723.2426  -795.7890  -511.2637 H6            1 RES     
   17359 H6         723.6942  -793.6308  -512.6269 H6            1 RES     
   17360 H6         721.9244  -793.3254  -512.5785 H6            1 RES     
   17361 H6         723.9605  -793.3685  -510.2366 H6            1 RES     
   17362 H6         723.1150  -791.9844  -510.9883 H6            1 RES     
   17363 H6         720.8956  -792.9229  -510.0888 H6            1 RES     
   17364 H6         722.1053  -792.2739  -508.9535 H6            1 RES     
   17365 H6         721.6626  -795.2520  -509.4573 H6            1 RES     
   17366 H6         722.9072  -794.6027  -508.3625 H6            1 RES     
   17367 H6         720.7864  -795.5487  -507.3745 H6            1 RES     
   17368 H6         719.8462  -794.1988  -508.0595 H6            1 RES     
   17369 H6         720.3707  -794.0219  -505.6224 H6            1 RES     
   17370 H6         722.1293  -794.1396  -505.9394 H6            1 RES     
   17371 H6         721.4148  -791.8711  -505.3090 H6            1 RES     
   17372 H6         722.1337  -791.8630  -506.9214 H6            1 RES     
   17373 H6         719.1048  -791.8654  -506.2678 H6            1 RES     
   17374 H6         720.0793  -790.4492  -506.8190 H6            1 RES     
   17375 H6         719.7971  -791.8263  -507.9392 H6            1 RES     
   17376 C0         721.8418  -802.4371  -518.5299 C0            1 RES     
   17377 C0         721.3698  -801.4043  -519.5826 C0            1 RES     
   17378 C0         721.7196  -801.6775  -521.0616 C0            1 RES     
   17379 C0         723.1685  -801.3836  -521.5233 C0            1 RES     
   17380 C0         723.6538  -799.9808  -521.1021 C0            1 RES     
   17381 C0         724.8946  -799.4637  -521.8442 C0            1 RES     
   17382 C0         724.5309  -798.8993  -523.2274 C0            1 RES     
   17383 C0         725.7542  -798.2952  -523.9326 C0            1 RES     
   17384 C0         725.3303  -797.5752  -525.2196 C0            1 RES     
   17385 C0         726.4588  -797.1490  -526.1833 C0            1 RES     
   17386 C0         727.5053  -796.1221  -525.7004 C0            1 RES     
   17387 C0         728.6110  -796.7169  -524.8045 C0            1 RES     
   17388 C0         729.7215  -795.7273  -524.3918 C0            1 RES     
   17389 C0         730.8504  -795.4503  -525.4158 C0            1 RES     
   17390 C0         730.5026  -794.6975  -526.7092 C0            1 RES     
   17391 C0         729.8633  -793.3348  -526.4496 C0            1 RES     
   17392 H6         722.9159  -802.6874  -518.6686 H6            1 RES     
   17393 H6         721.2623  -803.3604  -518.7555 H6            1 RES     
   17394 H6         720.2612  -801.4199  -519.5372 H6            1 RES     
   17395 H6         721.6890  -800.3790  -519.3527 H6            1 RES     
   17396 H6         721.4237  -802.7091  -521.3491 H6            1 RES     
   17397 H6         721.0824  -800.9792  -521.6494 H6            1 RES     
   17398 H6         723.8825  -802.1430  -521.1371 H6            1 RES     
   17399 H6         723.1566  -801.4609  -522.6312 H6            1 RES     
   17400 H6         722.8476  -799.2211  -521.2039 H6            1 RES     
   17401 H6         723.9273  -800.0607  -520.0416 H6            1 RES     
   17402 H6         725.6785  -800.2507  -521.8979 H6            1 RES     
   17403 H6         725.3006  -798.6124  -521.2557 H6            1 RES     
   17404 H6         724.0862  -799.6890  -523.8686 H6            1 RES     
   17405 H6         723.7755  -798.0941  -523.0807 H6            1 RES     
   17406 H6         726.2123  -797.5545  -523.2490 H6            1 RES     
   17407 H6         726.4730  -799.1112  -524.1601 H6            1 RES     
   17408 H6         724.6849  -798.2673  -525.8044 H6            1 RES     
   17409 H6         724.7149  -796.6883  -524.9484 H6            1 RES     
   17410 H6         726.9817  -798.0437  -526.5847 H6            1 RES     
   17411 H6         725.9273  -796.6729  -527.0378 H6            1 RES     
   17412 H6         727.0059  -795.2563  -525.2139 H6            1 RES     
   17413 H6         727.9782  -795.7540  -526.6195 H6            1 RES     
   17414 H6         728.1450  -797.0425  -523.8638 H6            1 RES     
   17415 H6         729.0745  -797.6097  -525.2771 H6            1 RES     
   17416 H6         730.2474  -796.2077  -523.5364 H6            1 RES     
   17417 H6         729.2779  -794.7869  -524.0017 H6            1 RES     
   17418 H6         731.6186  -794.8444  -524.8861 H6            1 RES     
   17419 H6         731.3273  -796.4158  -525.6929 H6            1 RES     
   17420 H6         731.4482  -794.5355  -527.2714 H6            1 RES     
   17421 H6         729.8639  -795.3102  -527.3687 H6            1 RES     
   17422 H6         730.5389  -792.7049  -525.8328 H6            1 RES     
   17423 H6         729.6827  -792.8213  -527.4172 H6            1 RES     
   17424 H6         728.8904  -793.4466  -525.9290 H6            1 RES     
   17425 C0         725.7490  -813.4851  -513.0794 C0            1 RES     
   17426 C1         724.5715  -812.4899  -513.0186 C1            1 RES     
   17427 C1         723.2993  -813.0766  -512.5496 C1            1 RES     
   17428 S2         722.0042  -812.2117  -513.4511 S2            1 RES     
   17429 C1         723.1352  -810.8072  -513.3399 C1            1 RES     
   17430 C1         724.4611  -811.1965  -513.3021 C1            1 RES     
   17431 C1         723.6013  -814.4877  -512.7381 C1            1 RES     
   17432 C1         724.9149  -814.7600  -512.9889 C1            1 RES     
   17433 C1         725.1750  -816.1392  -513.0818 C1            1 RES     
   17434 C1         724.0084  -816.9051  -512.8446 C1            1 RES     
   17435 S2         722.7024  -815.8648  -512.5335 S2            1 RES     
   17436 H3         725.2591  -810.5355  -513.5980 H3            1 RES     
   17437 H3         726.1508  -816.5598  -513.2904 H3            1 RES     
   17438 N4         724.8163  -819.1220  -513.5511 N4            1 RES     
   17439 C1         724.7329  -820.4802  -513.6737 C1            1 RES     
   17440 C1         723.6808  -821.1910  -513.0837 C1            1 RES     
   17441 C1         722.7249  -820.4816  -512.3675 C1            1 RES     
   17442 N4         721.6756  -821.0642  -511.7376 N4            1 RES     
   17443 S2         720.9071  -819.7672  -511.0631 S2            1 RES     
   17444 N4         721.8285  -818.4791  -511.5332 N4            1 RES     
   17445 C1         722.8131  -819.0667  -512.2631 C1            1 RES     
   17446 C1         723.8857  -818.3835  -512.8757 C1            1 RES     
   17447 H5         725.4851  -821.0148  -514.2394 H5            1 RES     
   17448 C0         726.6282  -813.3660  -511.7922 C0            1 RES     
   17449 C0         727.3474  -812.0198  -511.6603 C0            1 RES     
   17450 C0         728.1051  -811.7825  -510.3503 C0            1 RES     
   17451 C0         727.2487  -811.7720  -509.0741 C0            1 RES     
   17452 C0         725.9685  -810.9210  -509.2015 C0            1 RES     
   17453 C0         725.2909  -810.6907  -507.8453 C0            1 RES     
   17454 C0         725.9969  -809.5697  -507.0665 C0            1 RES     
   17455 C0         725.3776  -809.3671  -505.6831 C0            1 RES     
   17456 C0         725.9480  -808.1082  -505.0226 C0            1 RES     
   17457 C0         725.6513  -807.9285  -503.5203 C0            1 RES     
   17458 C0         724.1783  -807.8900  -503.0666 C0            1 RES     
   17459 C0         723.5347  -809.2876  -502.9251 C0            1 RES     
   17460 C0         722.0827  -809.2923  -502.4068 C0            1 RES     
   17461 C0         721.8698  -809.1538  -500.8801 C0            1 RES     
   17462 C0         722.2435  -807.8253  -500.2062 C0            1 RES     
   17463 C0         721.5302  -806.6248  -500.8253 C0            1 RES     
   17464 H6         725.9571  -813.4856  -510.9153 H6            1 RES     
   17465 H6         727.3739  -814.1899  -511.7556 H6            1 RES     
   17466 H6         728.0943  -811.9586  -512.4501 H6            1 RES     
   17467 H6         726.6309  -811.1870  -511.7852 H6            1 RES     
   17468 H6         728.9248  -812.5241  -510.2333 H6            1 RES     
   17469 H6         728.5732  -810.7770  -510.4456 H6            1 RES     
   17470 H6         726.9492  -812.8073  -508.8016 H6            1 RES     
   17471 H6         727.9077  -811.3922  -508.2664 H6            1 RES     
   17472 H6         726.1703  -809.9358  -509.6763 H6            1 RES     
   17473 H6         725.2645  -811.4773  -509.8569 H6            1 RES     
   17474 H6         725.2516  -811.6440  -507.2730 H6            1 RES     
   17475 H6         724.2468  -810.3520  -508.0240 H6            1 RES     
   17476 H6         727.0770  -809.7872  -506.9342 H6            1 RES     
   17477 H6         725.8971  -808.6323  -507.6590 H6            1 RES     
   17478 H6         724.2836  -809.2329  -505.8045 H6            1 RES     
   17479 H6         725.5983  -810.2674  -505.0689 H6            1 RES     
   17480 H6         727.0569  -808.1247  -505.1113 H6            1 RES     
   17481 H6         725.5774  -807.2231  -505.5868 H6            1 RES     
   17482 H6         726.1932  -808.6941  -502.9242 H6            1 RES     
   17483 H6         726.0979  -806.9416  -503.2642 H6            1 RES     
   17484 H6         723.5842  -807.2251  -503.7303 H6            1 RES     
   17485 H6         724.2039  -807.4277  -502.0725 H6            1 RES     
   17486 H6         723.4859  -809.7481  -503.9216 H6            1 RES     
   17487 H6         724.1549  -809.9513  -502.2843 H6            1 RES     
   17488 H6         721.6819  -810.3034  -502.6444 H6            1 RES     
   17489 H6         721.4670  -808.5663  -502.9785 H6            1 RES     
   17490 H6         720.7854  -809.3190  -500.6948 H6            1 RES     
   17491 H6         722.4203  -809.9717  -500.3656 H6            1 RES     
   17492 H6         721.9485  -807.8929  -499.1367 H6            1 RES     
   17493 H6         723.3366  -807.6734  -500.2052 H6            1 RES     
   17494 H6         720.4296  -806.7623  -500.7708 H6            1 RES     
   17495 H6         721.8034  -805.7050  -500.2670 H6            1 RES     
   17496 H6         721.8292  -806.4884  -501.8845 H6            1 RES     
   17497 C0         726.5784  -813.4884  -514.4295 C0            1 RES     
   17498 C0         726.8784  -812.0940  -515.0322 C0            1 RES     
   17499 C0         727.8319  -812.0276  -516.2449 C0            1 RES     
   17500 C0         729.3508  -812.1610  -515.9729 C0            1 RES     
   17501 C0         729.8381  -811.2233  -514.8487 C0            1 RES     
   17502 C0         731.3563  -811.0010  -514.7893 C0            1 RES     
   17503 C0         731.8159  -809.9626  -515.8258 C0            1 RES     
   17504 C0         733.3184  -809.6679  -515.7052 C0            1 RES     
   17505 C0         733.7108  -808.4984  -516.6177 C0            1 RES     
   17506 C0         735.2210  -808.2502  -516.8213 C0            1 RES     
   17507 C0         736.0863  -807.8675  -515.6017 C0            1 RES     
   17508 C0         736.4892  -809.0603  -514.7106 C0            1 RES     
   17509 C0         737.4356  -808.7132  -513.5416 C0            1 RES     
   17510 C0         738.9461  -808.5792  -513.8588 C0            1 RES     
   17511 C0         739.4131  -807.4065  -514.7348 C0            1 RES     
   17512 C0         739.0066  -806.0461  -514.1718 C0            1 RES     
   17513 H6         727.5159  -814.0607  -514.2591 H6            1 RES     
   17514 H6         726.0102  -814.0259  -515.2216 H6            1 RES     
   17515 H6         725.9042  -811.7164  -515.4058 H6            1 RES     
   17516 H6         727.2414  -811.3727  -514.2880 H6            1 RES     
   17517 H6         727.5151  -812.7460  -517.0311 H6            1 RES     
   17518 H6         727.7031  -811.0052  -516.6660 H6            1 RES     
   17519 H6         729.6298  -813.2061  -515.7167 H6            1 RES     
   17520 H6         729.8552  -811.8988  -516.9270 H6            1 RES     
   17521 H6         729.3442  -810.2280  -514.9029 H6            1 RES     
   17522 H6         729.5498  -811.7058  -513.9054 H6            1 RES     
   17523 H6         731.9001  -811.9665  -514.8835 H6            1 RES     
   17524 H6         731.5884  -810.5706  -513.7909 H6            1 RES     
   17525 H6         731.5879  -810.3089  -516.8556 H6            1 RES     
   17526 H6         731.2556  -809.0188  -515.6366 H6            1 RES     
   17527 H6         733.5281  -809.3823  -514.6563 H6            1 RES     
   17528 H6         733.8840  -810.5841  -515.9793 H6            1 RES     
   17529 H6         733.3029  -808.7019  -517.6324 H6            1 RES     
   17530 H6         733.2267  -807.5703  -516.2394 H6            1 RES     
   17531 H6         735.6866  -809.1132  -517.3444 H6            1 RES     
   17532 H6         735.2669  -807.3842  -517.5193 H6            1 RES     
   17533 H6         735.5946  -807.0637  -515.0120 H6            1 RES     
   17534 H6         737.0024  -807.4444  -516.0327 H6            1 RES     
   17535 H6         735.5770  -809.4546  -514.2412 H6            1 RES     
   17536 H6         736.9384  -809.8789  -515.3135 H6            1 RES     
   17537 H6         737.3836  -809.5813  -512.8468 H6            1 RES     
   17538 H6         737.0523  -807.8355  -512.9794 H6            1 RES     
   17539 H6         739.4687  -808.4804  -512.8816 H6            1 RES     
   17540 H6         739.2990  -809.5244  -514.3260 H6            1 RES     
   17541 H6         740.5232  -807.4431  -514.7858 H6            1 RES     
   17542 H6         739.0621  -807.5204  -515.7750 H6            1 RES     
   17543 H6         739.4130  -805.9179  -513.1461 H6            1 RES     
   17544 H6         739.4145  -805.2417  -514.8193 H6            1 RES     
   17545 H6         737.9027  -805.9428  -514.1438 H6            1 RES     
   17546 C0         725.1684  -826.2771  -513.2073 C0            1 RES     
   17547 C1         724.3246  -824.9862  -513.1621 C1            1 RES     
   17548 C1         722.8965  -825.1780  -513.4887 C1            1 RES     
   17549 S2         722.3867  -823.6759  -514.3382 S2            1 RES     
   17550 C1         723.5756  -822.8811  -513.2342 C1            1 RES     
   17551 C1         724.6172  -823.7201  -512.8851 C1            1 RES     
   17552 C1         722.9706  -826.4790  -514.1365 C1            1 RES     
   17553 C1         724.1626  -827.1253  -513.9809 C1            1 RES     
   17554 C1         724.1613  -828.4110  -514.5513 C1            1 RES     
   17555 C1         722.8996  -828.7313  -515.1075 C1            1 RES     
   17556 S2         721.8349  -827.4274  -514.8829 S2            1 RES     
   17557 H3         725.5709  -823.3405  -512.5567 H3            1 RES     
   17558 H3         725.0149  -829.0773  -514.5472 H3            1 RES     
   17559 N4         723.4978  -830.7763  -516.3433 N4            1 RES     
   17560 C1         723.2207  -831.9092  -517.0547 C1            1 RES     
   17561 C1         721.8991  -832.3267  -517.2537 C1            1 RES     
   17562 C1         720.8761  -831.5620  -516.7071 C1            1 RES     
   17563 N4         719.5628  -831.8790  -516.8174 N4            1 RES     
   17564 S2         718.8346  -830.6515  -515.9864 S2            1 RES     
   17565 N4         720.0993  -829.7118  -515.4895 N4            1 RES     
   17566 C1         721.1772  -830.3753  -515.9849 C1            1 RES     
   17567 C1         722.5217  -829.9831  -515.8088 C1            1 RES     
   17568 H5         724.0312  -832.4895  -517.4763 H5            1 RES     
   17569 C0         725.3291  -826.8718  -511.7705 C0            1 RES     
   17570 C0         726.1441  -825.9842  -510.8245 C0            1 RES     
   17571 C0         726.2130  -826.4370  -509.3627 C0            1 RES     
   17572 C0         724.8714  -826.4907  -508.6147 C0            1 RES     
   17573 C0         724.0015  -825.2343  -508.8242 C0            1 RES     
   17574 C0         722.8176  -825.1828  -507.8509 C0            1 RES     
   17575 C0         723.2682  -824.6797  -506.4706 C0            1 RES     
   17576 C0         722.1157  -824.6819  -505.4654 C0            1 RES     
   17577 C0         722.5335  -823.9728  -504.1735 C0            1 RES     
   17578 C0         721.5962  -824.1480  -502.9620 C0            1 RES     
   17579 C0         720.1251  -823.7099  -503.1076 C0            1 RES     
   17580 C0         719.2342  -824.7509  -503.8217 C0            1 RES     
   17581 C0         717.7420  -824.3776  -503.9248 C0            1 RES     
   17582 C0         716.8566  -824.6270  -502.6801 C0            1 RES     
   17583 C0         717.1132  -823.7885  -501.4191 C0            1 RES     
   17584 C0         717.0319  -822.2856  -501.6795 C0            1 RES     
   17585 H6         724.3119  -826.9906  -511.3408 H6            1 RES     
   17586 H6         725.7900  -827.8825  -511.8196 H6            1 RES     
   17587 H6         727.1733  -825.9703  -511.1794 H6            1 RES     
   17588 H6         725.7523  -824.9504  -510.8340 H6            1 RES     
   17589 H6         726.7147  -827.4256  -509.2831 H6            1 RES     
   17590 H6         726.8552  -825.6918  -508.8417 H6            1 RES     
   17591 H6         724.2830  -827.3760  -508.9402 H6            1 RES     
   17592 H6         725.1236  -826.6337  -507.5437 H6            1 RES     
   17593 H6         724.5930  -824.2980  -508.7231 H6            1 RES     
   17594 H6         723.6036  -825.2756  -509.8608 H6            1 RES     
   17595 H6         722.3247  -826.1789  -507.7985 H6            1 RES     
   17596 H6         722.0747  -824.4498  -508.2354 H6            1 RES     
   17597 H6         724.0876  -825.3051  -506.0597 H6            1 RES     
   17598 H6         723.6484  -823.6409  -506.5973 H6            1 RES     
   17599 H6         721.2629  -824.1283  -505.9078 H6            1 RES     
   17600 H6         721.8359  -825.7385  -505.2607 H6            1 RES     
   17601 H6         723.5224  -824.3661  -503.8492 H6            1 RES     
   17602 H6         722.6581  -822.8897  -504.3980 H6            1 RES     
   17603 H6         721.6263  -825.1975  -502.5976 H6            1 RES     
   17604 H6         722.0483  -823.5148  -502.1660 H6            1 RES     
   17605 H6         720.0631  -822.7104  -503.5899 H6            1 RES     
   17606 H6         719.7618  -823.6036  -502.0784 H6            1 RES     
   17607 H6         719.5793  -824.8465  -504.8606 H6            1 RES     
   17608 H6         719.3299  -825.7521  -503.3484 H6            1 RES     
   17609 H6         717.3155  -825.0544  -504.6991 H6            1 RES     
   17610 H6         717.6292  -823.3433  -504.3127 H6            1 RES     
   17611 H6         715.8072  -824.4316  -502.9930 H6            1 RES     
   17612 H6         716.9230  -825.7018  -502.4023 H6            1 RES     
   17613 H6         716.3360  -824.0554  -500.6707 H6            1 RES     
   17614 H6         718.0785  -824.0537  -500.9545 H6            1 RES     
   17615 H6         716.0364  -822.0212  -502.0947 H6            1 RES     
   17616 H6         717.1780  -821.7373  -500.7253 H6            1 RES     
   17617 H6         717.8209  -821.9624  -502.3887 H6            1 RES     
   17618 C0         726.5236  -826.1853  -514.0233 C0            1 RES     
   17619 C0         727.3401  -824.8858  -513.8175 C0            1 RES     
   17620 C0         728.7495  -824.8183  -514.4447 C0            1 RES     
   17621 C0         729.8943  -825.5707  -513.7222 C0            1 RES     
   17622 C0         729.9567  -825.2514  -512.2140 C0            1 RES     
   17623 C0         731.2719  -825.6268  -511.5160 C0            1 RES     
   17624 C0         732.3632  -824.5723  -511.7629 C0            1 RES     
   17625 C0         733.6497  -824.8961  -510.9890 C0            1 RES     
   17626 C0         734.6497  -823.7378  -511.1019 C0            1 RES     
   17627 C0         736.0888  -824.0100  -510.6134 C0            1 RES     
   17628 C0         736.3214  -824.3469  -509.1251 C0            1 RES     
   17629 C0         736.0082  -825.8098  -508.7496 C0            1 RES     
   17630 C0         736.3275  -826.1928  -507.2887 C0            1 RES     
   17631 C0         737.7988  -826.5325  -506.9428 C0            1 RES     
   17632 C0         738.8458  -825.4094  -506.9968 C0            1 RES     
   17633 C0         738.4934  -824.2252  -506.0989 C0            1 RES     
   17634 H6         727.1336  -827.0832  -513.7843 H6            1 RES     
   17635 H6         726.3110  -826.2194  -515.1154 H6            1 RES     
   17636 H6         726.7578  -824.0867  -514.3212 H6            1 RES     
   17637 H6         727.4356  -824.6004  -512.7615 H6            1 RES     
   17638 H6         728.7141  -825.1057  -515.5174 H6            1 RES     
   17639 H6         729.0394  -823.7443  -514.4039 H6            1 RES     
   17640 H6         729.8074  -826.6710  -513.8544 H6            1 RES     
   17641 H6         730.8335  -825.2424  -514.2158 H6            1 RES     
   17642 H6         729.7534  -824.1761  -512.0145 H6            1 RES     
   17643 H6         729.1649  -825.8500  -511.7446 H6            1 RES     
   17644 H6         731.5947  -826.6503  -511.8074 H6            1 RES     
   17645 H6         731.0771  -825.6253  -510.4214 H6            1 RES     
   17646 H6         732.5928  -824.4917  -512.8460 H6            1 RES     
   17647 H6         731.9765  -823.5899  -511.4081 H6            1 RES     
   17648 H6         733.3834  -825.0291  -509.9227 H6            1 RES     
   17649 H6         734.0868  -825.8311  -511.4003 H6            1 RES     
   17650 H6         734.7459  -823.4699  -512.1773 H6            1 RES     
   17651 H6         734.2349  -822.8527  -510.5695 H6            1 RES     
   17652 H6         736.5697  -824.7881  -511.2445 H6            1 RES     
   17653 H6         736.6305  -823.0563  -510.8047 H6            1 RES     
   17654 H6         735.7747  -823.6311  -508.4735 H6            1 RES     
   17655 H6         737.3943  -824.1808  -508.9668 H6            1 RES     
   17656 H6         734.9257  -825.9632  -508.8623 H6            1 RES     
   17657 H6         736.5218  -826.5192  -509.4338 H6            1 RES     
   17658 H6         735.7817  -827.1451  -507.1032 H6            1 RES     
   17659 H6         735.9012  -825.4433  -506.5889 H6            1 RES     
   17660 H6         737.7984  -826.9238  -505.9012 H6            1 RES     
   17661 H6         738.1405  -827.3587  -507.6039 H6            1 RES     
   17662 H6         739.8140  -825.8320  -506.6496 H6            1 RES     
   17663 H6         739.0204  -825.0756  -508.0343 H6            1 RES     
   17664 H6         738.3760  -824.5623  -505.0471 H6            1 RES     
   17665 H6         739.3089  -823.4731  -506.1426 H6            1 RES     
   17666 H6         737.5546  -823.7393  -506.4345 H6            1 RES     
   17667 C0         722.2422  -837.3254  -518.9832 C0            1 RES     
   17668 C1         721.7492  -835.8905  -518.7029 C1            1 RES     
   17669 C1         720.6449  -835.4424  -519.5762 C1            1 RES     
   17670 S2         720.9068  -833.6796  -519.8243 S2            1 RES     
   17671 C1         721.5520  -833.7367  -518.1377 C1            1 RES     
   17672 C1         722.1139  -834.9607  -517.8267 C1            1 RES     
   17673 C1         720.7649  -836.4279  -520.6404 C1            1 RES     
   17674 C1         721.5856  -837.4796  -520.3523 C1            1 RES     
   17675 C1         721.6069  -838.4467  -521.3734 C1            1 RES     
   17676 C1         720.7299  -838.1054  -522.4308 C1            1 RES     
   17677 S2         719.9644  -836.6311  -522.0771 S2            1 RES     
   17678 H3         722.8476  -835.0703  -517.0450 H3            1 RES     
   17679 H3         722.2063  -839.3481  -521.3428 H3            1 RES     
   17680 N4         721.4350  -839.7661  -524.1076 N4            1 RES     
   17681 C1         721.3172  -840.4561  -525.2808 C1            1 RES     
   17682 C1         720.1992  -840.2837  -526.1060 C1            1 RES     
   17683 C1         719.2106  -839.3958  -525.7008 C1            1 RES     
   17684 N4         718.0768  -839.1638  -526.4066 N4            1 RES     
   17685 S2         717.2948  -838.0585  -525.4609 S2            1 RES     
   17686 N4         718.3233  -837.8365  -524.1872 N4            1 RES     
   17687 C1         719.3541  -838.6702  -524.4869 C1            1 RES     
   17688 C1         720.4978  -838.8664  -523.6832 C1            1 RES     
   17689 H5         722.1000  -841.1403  -525.5815 H5            1 RES     
   17690 C0         721.5772  -838.3324  -517.9894 C0            1 RES     
   17691 C0         721.9957  -838.1245  -516.5304 C0            1 RES     
   17692 C0         721.2677  -838.9799  -515.4888 C0            1 RES     
   17693 C0         719.7506  -838.7578  -515.3824 C0            1 RES     
   17694 C0         719.3503  -837.2688  -515.3371 C0            1 RES     
   17695 C0         717.8811  -837.0777  -514.9418 C0            1 RES     
   17696 C0         717.7049  -837.2042  -513.4205 C0            1 RES     
   17697 C0         716.2369  -837.0814  -513.0102 C0            1 RES     
   17698 C0         716.1151  -836.9879  -511.4861 C0            1 RES     
   17699 C0         714.6990  -837.1572  -510.9004 C0            1 RES     
   17700 C0         713.5940  -836.1903  -511.3709 C0            1 RES     
   17701 C0         712.9697  -836.5743  -512.7311 C0            1 RES     
   17702 C0         711.8136  -835.6694  -513.2017 C0            1 RES     
   17703 C0         710.4117  -835.9330  -512.6012 C0            1 RES     
   17704 C0         710.1918  -835.6573  -511.1064 C0            1 RES     
   17705 C0         710.5392  -834.2236  -510.7102 C0            1 RES     
   17706 H6         720.4775  -838.1925  -518.0557 H6            1 RES     
   17707 H6         721.7987  -839.3788  -518.2931 H6            1 RES     
   17708 H6         723.0496  -838.3835  -516.4425 H6            1 RES     
   17709 H6         721.8659  -837.0655  -516.2401 H6            1 RES     
   17710 H6         721.4670  -840.0597  -515.6617 H6            1 RES     
   17711 H6         721.7137  -838.7095  -514.5053 H6            1 RES     
   17712 H6         719.2300  -839.2290  -516.2442 H6            1 RES     
   17713 H6         719.4267  -839.2914  -514.4651 H6            1 RES     
   17714 H6         719.9909  -836.6876  -514.6381 H6            1 RES     
   17715 H6         719.4971  -836.8549  -516.3577 H6            1 RES     
   17716 H6         717.2400  -837.7929  -515.5033 H6            1 RES     
   17717 H6         717.5712  -836.0459  -515.2183 H6            1 RES     
   17718 H6         718.0886  -838.1767  -513.0483 H6            1 RES     
   17719 H6         718.2934  -836.3882  -512.9433 H6            1 RES     
   17720 H6         715.8258  -836.1508  -513.4513 H6            1 RES     
   17721 H6         715.6937  -837.9726  -513.3938 H6            1 RES     
   17722 H6         716.7305  -837.7918  -511.0247 H6            1 RES     
   17723 H6         716.5400  -836.0107  -511.1643 H6            1 RES     
   17724 H6         714.3463  -838.2024  -511.0357 H6            1 RES     
   17725 H6         714.8289  -836.9973  -509.8065 H6            1 RES     
   17726 H6         713.9660  -835.1429  -511.3661 H6            1 RES     
   17727 H6         712.8115  -836.2668  -510.6064 H6            1 RES     
   17728 H6         713.7434  -836.4788  -513.5056 H6            1 RES     
   17729 H6         712.6305  -837.6328  -512.7317 H6            1 RES     
   17730 H6         711.6868  -835.8835  -514.2868 H6            1 RES     
   17731 H6         712.1039  -834.6006  -513.1226 H6            1 RES     
   17732 H6         709.7005  -835.2852  -513.1597 H6            1 RES     
   17733 H6         710.1265  -836.9882  -512.8058 H6            1 RES     
   17734 H6         709.1164  -835.8296  -510.8845 H6            1 RES     
   17735 H6         710.7448  -836.3807  -510.4828 H6            1 RES     
   17736 H6         709.9366  -833.5044  -511.3043 H6            1 RES     
   17737 H6         710.3149  -834.0735  -509.6334 H6            1 RES     
   17738 H6         711.6169  -834.0174  -510.8712 H6            1 RES     
   17739 C0         723.8109  -837.4989  -519.1247 C0            1 RES     
   17740 C0         724.6648  -836.7098  -518.1020 C0            1 RES     
   17741 C0         726.1849  -836.9800  -518.0778 C0            1 RES     
   17742 C0         726.6735  -838.2753  -517.3832 C0            1 RES     
   17743 C0         726.0681  -838.4600  -515.9761 C0            1 RES     
   17744 C0         726.7877  -839.4772  -515.0787 C0            1 RES     
   17745 C0         728.0457  -838.8716  -514.4348 C0            1 RES     
   17746 C0         728.7145  -839.8551  -513.4631 C0            1 RES     
   17747 C0         729.8504  -839.1638  -512.6973 C0            1 RES     
   17748 C0         730.7964  -840.0735  -511.8840 C0            1 RES     
   17749 C0         730.2185  -840.8941  -510.7113 C0            1 RES     
   17750 C0         729.4860  -842.1823  -511.1391 C0            1 RES     
   17751 C0         728.9864  -843.0673  -509.9772 C0            1 RES     
   17752 C0         730.0151  -844.0063  -509.2988 C0            1 RES     
   17753 C0         731.1563  -843.3807  -508.4823 C0            1 RES     
   17754 C0         730.6556  -842.4705  -507.3626 C0            1 RES     
   17755 H6         724.0444  -838.5850  -519.0875 H6            1 RES     
   17756 H6         724.1443  -837.1298  -520.1206 H6            1 RES     
   17757 H6         724.5624  -835.6432  -518.3903 H6            1 RES     
   17758 H6         724.2973  -836.8035  -517.0714 H6            1 RES     
   17759 H6         726.6115  -836.9052  -519.1010 H6            1 RES     
   17760 H6         726.6228  -836.1494  -517.4800 H6            1 RES     
   17761 H6         726.4481  -839.1764  -517.9937 H6            1 RES     
   17762 H6         727.7778  -838.1829  -517.3088 H6            1 RES     
   17763 H6         726.0079  -837.4948  -515.4264 H6            1 RES     
   17764 H6         725.0490  -838.8379  -516.1321 H6            1 RES     
   17765 H6         727.0043  -840.4132  -515.6387 H6            1 RES     
   17766 H6         726.0979  -839.7270  -514.2434 H6            1 RES     
   17767 H6         728.7759  -838.5654  -515.2129 H6            1 RES     
   17768 H6         727.7361  -837.9672  -513.8631 H6            1 RES     
   17769 H6         727.9507  -840.1893  -512.7346 H6            1 RES     
   17770 H6         729.1036  -840.7193  -514.0429 H6            1 RES     
   17771 H6         730.4991  -838.6458  -513.4378 H6            1 RES     
   17772 H6         729.4129  -838.3874  -512.0305 H6            1 RES     
   17773 H6         731.3586  -840.7505  -512.5628 H6            1 RES     
   17774 H6         731.5374  -839.3726  -511.4377 H6            1 RES     
   17775 H6         729.5781  -840.2542  -510.0662 H6            1 RES     
   17776 H6         731.0941  -841.1857  -510.1179 H6            1 RES     
   17777 H6         728.5829  -841.8895  -511.6929 H6            1 RES     
   17778 H6         730.1149  -842.7950  -511.8206 H6            1 RES     
   17779 H6         728.2449  -843.7637  -510.4291 H6            1 RES     
   17780 H6         728.4327  -842.4557  -509.2338 H6            1 RES     
   17781 H6         729.4407  -844.6583  -508.6041 H6            1 RES     
   17782 H6         730.4630  -844.6661  -510.0738 H6            1 RES     
   17783 H6         731.7372  -844.2096  -508.0219 H6            1 RES     
   17784 H6         731.8668  -842.8442  -509.1347 H6            1 RES     
   17785 H6         729.9866  -843.0350  -506.6789 H6            1 RES     
   17786 H6         731.5214  -842.0910  -506.7802 H6            1 RES     
   17787 H6         730.1066  -841.5998  -507.7755 H6            1 RES     
   17788 C0         720.3469  -844.3147  -529.5448 C0            1 RES     
   17789 C1         720.0700  -842.9499  -528.8805 C1            1 RES     
   17790 C1         719.6289  -841.8939  -529.8150 C1            1 RES     
   17791 S2         720.3150  -840.3595  -529.1725 S2            1 RES     
   17792 C1         720.0501  -841.1420  -527.5658 C1            1 RES     
   17793 C1         720.1444  -842.5198  -527.6256 C1            1 RES     
   17794 C1         720.0486  -842.4947  -531.0723 C1            1 RES     
   17795 C1         720.4090  -843.8081  -530.9831 C1            1 RES     
   17796 C1         720.7272  -844.3694  -532.2330 C1            1 RES     
   17797 C1         720.5481  -843.4364  -533.2823 C1            1 RES     
   17798 S2         720.0103  -841.9590  -532.6400 S2            1 RES     
   17799 H3         720.3777  -843.1145  -526.7577 H3            1 RES     
   17800 H3         721.0506  -845.3933  -532.3734 H3            1 RES     
   17801 N4         721.6304  -844.6669  -535.1212 N4            1 RES     
   17802 C1         721.9561  -844.8879  -536.4295 C1            1 RES     
   17803 C1         721.4266  -844.0846  -537.4467 C1            1 RES     
   17804 C1         720.5590  -843.0588  -537.0933 C1            1 RES     
   17805 N4         719.9706  -842.2322  -537.9922 N4            1 RES     
   17806 S2         719.0638  -841.2489  -537.0234 S2            1 RES     
   17807 N4         719.3790  -841.8033  -535.4994 N4            1 RES     
   17808 C1         720.2428  -842.8277  -535.7269 C1            1 RES     
   17809 C1         720.7999  -843.6552  -534.7282 C1            1 RES     
   17810 H5         722.6372  -845.6895  -536.6845 H5            1 RES     
   17811 C0         719.1062  -845.2539  -529.3947 C0            1 RES     
   17812 C0         718.8076  -845.6525  -527.9460 C0            1 RES     
   17813 C0         717.5196  -846.4489  -527.7147 C0            1 RES     
   17814 C0         716.2126  -845.7302  -528.0856 C0            1 RES     
   17815 C0         716.1380  -844.2824  -527.5589 C0            1 RES     
   17816 C0         714.7278  -843.6935  -527.6864 C0            1 RES     
   17817 C0         713.8250  -844.1889  -526.5458 C0            1 RES     
   17818 C0         712.3954  -843.6653  -526.6896 C0            1 RES     
   17819 C0         711.5806  -843.9870  -525.4330 C0            1 RES     
   17820 C0         710.0548  -843.7919  -525.5374 C0            1 RES     
   17821 C0         709.5215  -842.3960  -525.9174 C0            1 RES     
   17822 C0         709.5625  -842.1068  -527.4347 C0            1 RES     
   17823 C0         708.9734  -840.7470  -527.8599 C0            1 RES     
   17824 C0         707.4343  -840.6448  -527.9871 C0            1 RES     
   17825 C0         706.5850  -840.7611  -526.7127 C0            1 RES     
   17826 C0         706.9722  -839.7383  -525.6464 C0            1 RES     
   17827 H6         718.2232  -844.7093  -529.7913 H6            1 RES     
   17828 H6         719.2374  -846.1695  -530.0117 H6            1 RES     
   17829 H6         719.6178  -846.2919  -527.5992 H6            1 RES     
   17830 H6         718.7638  -844.7554  -527.3013 H6            1 RES     
   17831 H6         717.5627  -847.4244  -528.2458 H6            1 RES     
   17832 H6         717.4840  -846.6625  -526.6228 H6            1 RES     
   17833 H6         716.0870  -845.7027  -529.1898 H6            1 RES     
   17834 H6         715.3928  -846.3533  -527.6724 H6            1 RES     
   17835 H6         716.4655  -844.2087  -526.4987 H6            1 RES     
   17836 H6         716.8322  -843.6699  -528.1733 H6            1 RES     
   17837 H6         714.3079  -843.9259  -528.6902 H6            1 RES     
   17838 H6         714.7955  -842.5878  -527.5881 H6            1 RES     
   17839 H6         713.7863  -845.2974  -526.5127 H6            1 RES     
   17840 H6         714.2597  -843.8235  -525.5880 H6            1 RES     
   17841 H6         712.4354  -842.5635  -526.8076 H6            1 RES     
   17842 H6         711.9401  -844.1412  -527.5856 H6            1 RES     
   17843 H6         711.7306  -845.0575  -525.1696 H6            1 RES     
   17844 H6         711.9809  -843.3738  -524.5947 H6            1 RES     
   17845 H6         709.6139  -844.5464  -526.2240 H6            1 RES     
   17846 H6         709.6742  -844.0202  -524.5166 H6            1 RES     
   17847 H6         710.0418  -841.6082  -525.3308 H6            1 RES     
   17848 H6         708.4710  -842.4030  -525.6030 H6            1 RES     
   17849 H6         710.6140  -842.0769  -527.7525 H6            1 RES     
   17850 H6         709.0661  -842.9177  -528.0106 H6            1 RES     
   17851 H6         709.3419  -840.5704  -528.8955 H6            1 RES     
   17852 H6         709.3922  -839.9323  -527.2324 H6            1 RES     
   17853 H6         707.2184  -839.6486  -528.4324 H6            1 RES     
   17854 H6         707.0825  -841.4125  -528.7107 H6            1 RES     
   17855 H6         705.5243  -840.5860  -526.9951 H6            1 RES     
   17856 H6         706.6197  -841.7855  -526.3036 H6            1 RES     
   17857 H6         706.8801  -838.7082  -526.0511 H6            1 RES     
   17858 H6         706.2945  -839.8409  -524.7731 H6            1 RES     
   17859 H6         708.0123  -839.9022  -525.2983 H6            1 RES     
   17860 C0         721.7243  -844.9989  -529.1634 C0            1 RES     
   17861 C0         722.1203  -844.9148  -527.6688 C0            1 RES     
   17862 C0         723.3581  -845.7155  -527.2093 C0            1 RES     
   17863 C0         723.1924  -847.2424  -527.0089 C0            1 RES     
   17864 C0         721.9651  -847.5987  -526.1443 C0            1 RES     
   17865 C0         721.9544  -849.0240  -525.5731 C0            1 RES     
   17866 C0         722.8419  -849.1380  -524.3227 C0            1 RES     
   17867 C0         722.7587  -850.5368  -523.6942 C0            1 RES     
   17868 C0         723.5000  -850.5665  -522.3511 C0            1 RES     
   17869 C0         723.7443  -851.9547  -521.7209 C0            1 RES     
   17870 C0         722.5290  -852.8137  -521.3116 C0            1 RES     
   17871 C0         721.8553  -853.5581  -522.4826 C0            1 RES     
   17872 C0         720.6997  -854.4995  -522.0810 C0            1 RES     
   17873 C0         721.0737  -855.9040  -521.5449 C0            1 RES     
   17874 C0         721.7825  -856.0085  -520.1858 C0            1 RES     
   17875 C0         720.9955  -855.3515  -519.0536 C0            1 RES     
   17876 H6         721.6951  -846.0543  -529.5108 H6            1 RES     
   17877 H6         722.5579  -844.5015  -529.7084 H6            1 RES     
   17878 H6         722.3781  -843.8505  -527.4896 H6            1 RES     
   17879 H6         721.2946  -845.1668  -526.9901 H6            1 RES     
   17880 H6         724.2272  -845.5039  -527.8684 H6            1 RES     
   17881 H6         723.6090  -845.3178  -526.2004 H6            1 RES     
   17882 H6         723.1158  -847.7762  -527.9809 H6            1 RES     
   17883 H6         724.1205  -847.5858  -526.5048 H6            1 RES     
   17884 H6         721.8386  -846.8861  -525.2996 H6            1 RES     
   17885 H6         721.0933  -847.5145  -526.8065 H6            1 RES     
   17886 H6         722.2255  -849.7650  -526.3569 H6            1 RES     
   17887 H6         720.9156  -849.2388  -525.2403 H6            1 RES     
   17888 H6         723.8989  -848.9050  -524.5695 H6            1 RES     
   17889 H6         722.4794  -848.3945  -523.5768 H6            1 RES     
   17890 H6         721.6912  -850.7677  -523.5128 H6            1 RES     
   17891 H6         723.2009  -851.2715  -524.4008 H6            1 RES     
   17892 H6         724.5104  -850.1277  -522.5060 H6            1 RES     
   17893 H6         722.9576  -849.9173  -521.6276 H6            1 RES     
   17894 H6         724.4186  -852.5580  -522.3663 H6            1 RES     
   17895 H6         724.3020  -851.7376  -520.7822 H6            1 RES     
   17896 H6         721.7967  -852.2046  -520.7384 H6            1 RES     
   17897 H6         722.9384  -853.5656  -520.6254 H6            1 RES     
   17898 H6         721.4037  -852.8068  -523.1455 H6            1 RES     
   17899 H6         722.6006  -854.1282  -523.0784 H6            1 RES     
   17900 H6         720.1452  -854.7108  -523.0227 H6            1 RES     
   17901 H6         719.9891  -853.9759  -521.4070 H6            1 RES     
   17902 H6         720.1226  -856.4747  -521.4579 H6            1 RES     
   17903 H6         721.6994  -856.4221  -522.3043 H6            1 RES     
   17904 H6         721.8985  -857.0882  -519.9466 H6            1 RES     
   17905 H6         722.8073  -855.6019  -520.2374 H6            1 RES     
   17906 H6         719.9858  -855.8071  -518.9729 H6            1 RES     
   17907 H6         721.5324  -855.5038  -518.0938 H6            1 RES     
   17908 H6         720.8922  -854.2605  -519.2242 H6            1 RES     
   17909 C0         722.4126  -846.6863  -541.9584 C0            1 RES     
   17910 C1         722.1235  -845.5754  -540.9275 C1            1 RES     
   17911 C1         722.3980  -844.2066  -541.4111 C1            1 RES     
   17912 S2         722.9771  -843.2910  -539.9744 S2            1 RES     
   17913 C1         721.8298  -844.3585  -539.0754 C1            1 RES     
   17914 C1         721.6710  -845.5922  -539.6783 C1            1 RES     
   17915 C1         723.2417  -844.5204  -542.5547 C1            1 RES     
   17916 C1         723.2521  -845.8381  -542.9098 C1            1 RES     
   17917 C1         724.0128  -846.0821  -544.0674 C1            1 RES     
   17918 C1         724.5427  -844.8838  -544.6031 C1            1 RES     
   17919 S2         724.0626  -843.5717  -543.6374 S2            1 RES     
   17920 H3         721.3401  -846.4581  -539.1288 H3            1 RES     
   17921 H3         724.1576  -847.0631  -544.5025 H3            1 RES     
   17922 N4         726.1093  -845.8243  -546.2548 N4            1 RES     
   17923 C1         726.9707  -845.7532  -547.3128 C1            1 RES     
   17924 C1         727.1599  -844.5510  -548.0050 C1            1 RES     
   17925 C1         726.4476  -843.4323  -547.5915 C1            1 RES     
   17926 N4         726.5343  -842.2228  -548.1974 N4            1 RES     
   17927 S2         725.4859  -841.3085  -547.3071 S2            1 RES     
   17928 N4         724.9193  -842.3618  -546.1675 N4            1 RES     
   17929 C1         725.5685  -843.5150  -546.4776 C1            1 RES     
   17930 C1         725.4071  -844.7433  -545.8009 C1            1 RES     
   17931 H5         727.5200  -846.6347  -547.6173 H5            1 RES     
   17932 C0         721.0954  -847.1071  -542.6877 C0            1 RES     
   17933 C0         720.0694  -847.7767  -541.7680 C0            1 RES     
   17934 C0         718.7007  -848.0779  -542.3865 C0            1 RES     
   17935 C0         717.8985  -846.8568  -542.8637 C0            1 RES     
   17936 C0         717.8646  -845.7059  -541.8373 C0            1 RES     
   17937 C0         716.8324  -844.6335  -542.2062 C0            1 RES     
   17938 C0         715.4174  -845.0772  -541.8032 C0            1 RES     
   17939 C0         714.3638  -844.0505  -542.2205 C0            1 RES     
   17940 C0         713.0025  -844.4071  -541.6153 C0            1 RES     
   17941 C0         711.7836  -843.6471  -542.1752 C0            1 RES     
   17942 C0         711.7802  -842.1077  -542.0887 C0            1 RES     
   17943 C0         712.5970  -841.4205  -543.2059 C0            1 RES     
   17944 C0         712.5604  -839.8793  -543.1926 C0            1 RES     
   17945 C0         711.3230  -839.1897  -543.8159 C0            1 RES     
   17946 C0         709.9637  -839.3575  -543.1210 C0            1 RES     
   17947 C0         709.9846  -838.9095  -541.6609 C0            1 RES     
   17948 H6         720.6348  -846.1870  -543.1057 H6            1 RES     
   17949 H6         721.3245  -847.7820  -543.5411 H6            1 RES     
   17950 H6         720.4731  -848.7392  -541.4581 H6            1 RES     
   17951 H6         719.8983  -847.1581  -540.8677 H6            1 RES     
   17952 H6         718.8017  -848.7989  -543.2264 H6            1 RES     
   17953 H6         718.1066  -848.5750  -541.5870 H6            1 RES     
   17954 H6         718.3242  -846.4616  -543.8115 H6            1 RES     
   17955 H6         716.8776  -847.2295  -543.0868 H6            1 RES     
   17956 H6         717.6526  -846.0725  -540.8091 H6            1 RES     
   17957 H6         718.8721  -845.2375  -541.8310 H6            1 RES     
   17958 H6         716.9075  -844.3899  -543.2892 H6            1 RES     
   17959 H6         717.0586  -843.7105  -541.6283 H6            1 RES     
   17960 H6         715.1527  -846.0519  -542.2629 H6            1 RES     
   17961 H6         715.4030  -845.1951  -540.6961 H6            1 RES     
   17962 H6         714.6688  -843.0572  -541.8335 H6            1 RES     
   17963 H6         714.3095  -844.0408  -543.3312 H6            1 RES     
   17964 H6         712.7967  -845.4849  -541.7994 H6            1 RES     
   17965 H6         713.0639  -844.2585  -540.5139 H6            1 RES     
   17966 H6         711.5874  -843.9504  -543.2263 H6            1 RES     
   17967 H6         710.9251  -844.0103  -541.5669 H6            1 RES     
   17968 H6         712.0987  -841.7745  -541.0773 H6            1 RES     
   17969 H6         710.7288  -841.8228  -542.2150 H6            1 RES     
   17970 H6         713.6553  -841.6843  -543.0724 H6            1 RES     
   17971 H6         712.2894  -841.7859  -544.2097 H6            1 RES     
   17972 H6         713.4056  -839.5529  -543.8397 H6            1 RES     
   17973 H6         712.7777  -839.4973  -542.1729 H6            1 RES     
   17974 H6         711.5448  -838.0999  -543.8381 H6            1 RES     
   17975 H6         711.2182  -839.5262  -544.8706 H6            1 RES     
   17976 H6         709.2243  -838.7325  -543.6671 H6            1 RES     
   17977 H6         709.5984  -840.3954  -543.2069 H6            1 RES     
   17978 H6         710.2997  -837.8470  -541.5898 H6            1 RES     
   17979 H6         708.9666  -839.0098  -541.2294 H6            1 RES     
   17980 H6         710.6771  -839.5364  -541.0632 H6            1 RES     
   17981 C0         723.2768  -847.9058  -541.4321 C0            1 RES     
   17982 C0         722.9177  -848.4161  -540.0149 C0            1 RES     
   17983 C0         723.6023  -849.7104  -539.5246 C0            1 RES     
   17984 C0         723.0674  -851.0575  -540.0707 C0            1 RES     
   17985 C0         721.5335  -851.1787  -539.9552 C0            1 RES     
   17986 C0         720.9738  -852.6018  -540.0946 C0            1 RES     
   17987 C0         721.1140  -853.3945  -538.7847 C0            1 RES     
   17988 C0         720.4699  -854.7847  -538.8918 C0            1 RES     
   17989 C0         720.4569  -855.4769  -537.5224 C0            1 RES     
   17990 C0         720.0947  -856.9777  -537.5041 C0            1 RES     
   17991 C0         718.6909  -857.4132  -537.9755 C0            1 RES     
   17992 C0         718.5289  -857.4800  -539.5079 C0            1 RES     
   17993 C0         717.1639  -858.0078  -539.9990 C0            1 RES     
   17994 C0         716.9545  -859.5426  -540.0183 C0            1 RES     
   17995 C0         716.8914  -860.2938  -538.6795 C0            1 RES     
   17996 C0         715.8040  -859.7595  -537.7494 C0            1 RES     
   17997 H6         723.2124  -848.7250  -542.1805 H6            1 RES     
   17998 H6         724.3480  -847.6103  -541.3666 H6            1 RES     
   17999 H6         723.2600  -847.6230  -539.3184 H6            1 RES     
   18000 H6         721.8370  -848.5370  -539.8621 H6            1 RES     
   18001 H6         724.7030  -849.6468  -539.6625 H6            1 RES     
   18002 H6         723.4123  -849.7477  -538.4284 H6            1 RES     
   18003 H6         723.3625  -851.2148  -541.1307 H6            1 RES     
   18004 H6         723.5545  -851.8480  -539.4614 H6            1 RES     
   18005 H6         721.1600  -850.7518  -538.9983 H6            1 RES     
   18006 H6         721.1198  -850.5911  -540.7854 H6            1 RES     
   18007 H6         721.4365  -853.1244  -540.9604 H6            1 RES     
   18008 H6         719.8832  -852.5102  -540.2899 H6            1 RES     
   18009 H6         722.1826  -853.5020  -538.5037 H6            1 RES     
   18010 H6         720.5916  -852.8252  -537.9824 H6            1 RES     
   18011 H6         719.4240  -854.6523  -539.2297 H6            1 RES     
   18012 H6         721.0434  -855.3870  -539.6285 H6            1 RES     
   18013 H6         721.4818  -855.4127  -537.0947 H6            1 RES     
   18014 H6         719.7728  -854.9185  -536.8448 H6            1 RES     
   18015 H6         720.8633  -857.5667  -538.0495 H6            1 RES     
   18016 H6         720.1658  -857.2659  -536.4312 H6            1 RES     
   18017 H6         717.9082  -856.7767  -537.5086 H6            1 RES     
   18018 H6         718.5671  -858.4288  -537.5790 H6            1 RES     
   18019 H6         718.6052  -856.4564  -539.9007 H6            1 RES     
   18020 H6         719.3410  -858.0802  -539.9722 H6            1 RES     
   18021 H6         717.0980  -857.7147  -541.0709 H6            1 RES     
   18022 H6         716.3350  -857.4844  -539.4772 H6            1 RES     
   18023 H6         715.9872  -859.7251  -540.5368 H6            1 RES     
   18024 H6         717.7525  -860.0050  -540.6393 H6            1 RES     
   18025 H6         716.6663  -861.3601  -538.8998 H6            1 RES     
   18026 H6         717.8730  -860.2936  -538.1747 H6            1 RES     
   18027 H6         714.8119  -859.8171  -538.2456 H6            1 RES     
   18028 H6         715.7754  -860.3726  -536.8243 H6            1 RES     
   18029 H6         716.0095  -858.7080  -537.4628 H6            1 RES     
   18030 C0         729.6550  -845.8805  -552.4887 C0            1 RES     
   18031 C1         729.1307  -845.0973  -551.2671 C1            1 RES     
   18032 C1         729.8635  -843.8462  -550.9831 C1            1 RES     
   18033 S2         729.8509  -843.6720  -549.1922 S2            1 RES     
   18034 C1         728.2306  -844.4605  -549.3224 C1            1 RES     
   18035 C1         728.1427  -845.3146  -550.4058 C1            1 RES     
   18036 C1         731.0717  -844.0946  -551.7554 C1            1 RES     
   18037 C1         730.9939  -845.1577  -552.6077 C1            1 RES     
   18038 C1         732.1515  -845.3101  -553.3921 C1            1 RES     
   18039 C1         733.0946  -844.2875  -553.1306 C1            1 RES     
   18040 S2         732.4772  -843.2377  -551.9469 S2            1 RES     
   18041 H3         727.4280  -846.1204  -550.4412 H3            1 RES     
   18042 H3         732.2925  -846.1013  -554.1179 H3            1 RES     
   18043 N4         735.0430  -845.2038  -554.3270 N4            1 RES     
   18044 C1         736.3004  -845.1441  -554.8578 C1            1 RES     
   18045 C1         737.0274  -843.9475  -554.8486 C1            1 RES     
   18046 C1         736.4374  -842.8211  -554.2891 C1            1 RES     
   18047 N4         737.0367  -841.6062  -554.2427 N4            1 RES     
   18048 S2         735.8911  -840.6780  -553.4985 S2            1 RES     
   18049 N4         734.6560  -841.7370  -553.2117 N4            1 RES     
   18050 C1         735.1358  -842.9013  -553.7235 C1            1 RES     
   18051 C1         734.4350  -844.1263  -553.7465 C1            1 RES     
   18052 H5         736.7448  -846.0335  -555.2855 H5            1 RES     
   18053 C0         728.7936  -845.5565  -553.7525 C0            1 RES     
   18054 C0         727.3449  -846.0441  -553.6515 C0            1 RES     
   18055 C0         726.4097  -845.6284  -554.7913 C0            1 RES     
   18056 C0         726.1884  -844.1166  -554.9580 C0            1 RES     
   18057 C0         725.8927  -843.3899  -553.6299 C0            1 RES     
   18058 C0         725.3938  -841.9573  -553.8544 C0            1 RES     
   18059 C0         723.9028  -841.9513  -554.2266 C0            1 RES     
   18060 C0         723.3998  -840.5370  -554.5184 C0            1 RES     
   18061 C0         721.8752  -840.5332  -554.6665 C0            1 RES     
   18062 C0         721.2468  -839.2520  -555.2504 C0            1 RES     
   18063 C0         721.5022  -837.9167  -554.5232 C0            1 RES     
   18064 C0         722.8697  -837.2790  -554.8564 C0            1 RES     
   18065 C0         723.1320  -835.9084  -554.2011 C0            1 RES     
   18066 C0         722.5044  -834.6641  -554.8743 C0            1 RES     
   18067 C0         720.9753  -834.5206  -554.8669 C0            1 RES     
   18068 C0         720.3823  -834.5625  -553.4598 C0            1 RES     
   18069 H6         728.7780  -844.4527  -553.8739 H6            1 RES     
   18070 H6         729.2665  -845.9851  -554.6630 H6            1 RES     
   18071 H6         727.3551  -847.1328  -553.6585 H6            1 RES     
   18072 H6         726.8883  -845.7004  -552.7050 H6            1 RES     
   18073 H6         726.7574  -846.0548  -555.7572 H6            1 RES     
   18074 H6         725.4219  -846.0860  -554.5587 H6            1 RES     
   18075 H6         727.0831  -843.6439  -555.4183 H6            1 RES     
   18076 H6         725.3482  -844.0074  -555.6743 H6            1 RES     
   18077 H6         725.1482  -843.9390  -553.0129 H6            1 RES     
   18078 H6         726.8438  -843.3459  -553.0572 H6            1 RES     
   18079 H6         726.0233  -841.4507  -554.6192 H6            1 RES     
   18080 H6         725.4909  -841.3949  -552.8998 H6            1 RES     
   18081 H6         723.7062  -842.5802  -555.1195 H6            1 RES     
   18082 H6         723.3382  -842.3761  -553.3661 H6            1 RES     
   18083 H6         723.6694  -839.8850  -553.6629 H6            1 RES     
   18084 H6         723.8862  -840.1816  -555.4531 H6            1 RES     
   18085 H6         721.5771  -841.3557  -555.3538 H6            1 RES     
   18086 H6         721.4301  -840.7485  -553.6692 H6            1 RES     
   18087 H6         721.5223  -839.1389  -556.3211 H6            1 RES     
   18088 H6         720.1500  -839.4386  -555.2152 H6            1 RES     
   18089 H6         721.3563  -838.0364  -553.4278 H6            1 RES     
   18090 H6         720.7175  -837.2441  -554.8899 H6            1 RES     
   18091 H6         723.6609  -837.9377  -554.4723 H6            1 RES     
   18092 H6         723.0150  -837.1940  -555.9552 H6            1 RES     
   18093 H6         724.2287  -835.7382  -554.2889 H6            1 RES     
   18094 H6         722.9049  -835.9506  -553.1150 H6            1 RES     
   18095 H6         722.9171  -833.7760  -554.3467 H6            1 RES     
   18096 H6         722.8533  -834.6125  -555.9289 H6            1 RES     
   18097 H6         720.7247  -833.5380  -555.3219 H6            1 RES     
   18098 H6         720.5014  -835.2787  -555.5141 H6            1 RES     
   18099 H6         720.8250  -833.7600  -552.8327 H6            1 RES     
   18100 H6         719.2847  -834.4065  -553.5170 H6            1 RES     
   18101 H6         720.5676  -835.5450  -552.9800 H6            1 RES     
   18102 C0         729.9061  -847.4280  -552.2581 C0            1 RES     
   18103 C0         728.8217  -848.1648  -551.4342 C0            1 RES     
   18104 C0         728.9217  -849.7022  -551.3309 C0            1 RES     
   18105 C0         728.4624  -850.5359  -552.5528 C0            1 RES     
   18106 C0         727.0699  -850.1170  -553.0687 C0            1 RES     
   18107 C0         726.3802  -851.1285  -553.9955 C0            1 RES     
   18108 C0         725.7196  -852.2655  -553.1987 C0            1 RES     
   18109 C0         724.9487  -853.2266  -554.1155 C0            1 RES     
   18110 C0         724.1481  -854.2364  -553.2825 C0            1 RES     
   18111 C0         723.5370  -855.4351  -554.0399 C0            1 RES     
   18112 C0         722.4752  -855.1684  -555.1281 C0            1 RES     
   18113 C0         723.0561  -854.7171  -556.4838 C0            1 RES     
   18114 C0         722.0191  -854.5404  -557.6135 C0            1 RES     
   18115 C0         721.5502  -855.8138  -558.3607 C0            1 RES     
   18116 C0         720.7099  -856.8484  -557.5964 C0            1 RES     
   18117 C0         719.4379  -856.2533  -556.9957 C0            1 RES     
   18118 H6         730.0493  -847.9076  -553.2505 H6            1 RES     
   18119 H6         730.8498  -847.5774  -551.6869 H6            1 RES     
   18120 H6         728.9363  -847.7943  -550.3945 H6            1 RES     
   18121 H6         727.7996  -847.9220  -551.7538 H6            1 RES     
   18122 H6         729.9427  -850.0073  -551.0162 H6            1 RES     
   18123 H6         728.2276  -849.9885  -550.5091 H6            1 RES     
   18124 H6         729.1914  -850.4705  -553.3894 H6            1 RES     
   18125 H6         728.4344  -851.5913  -552.2081 H6            1 RES     
   18126 H6         726.3756  -849.8854  -552.2310 H6            1 RES     
   18127 H6         727.2269  -849.2026  -553.6559 H6            1 RES     
   18128 H6         727.0886  -851.5041  -554.7661 H6            1 RES     
   18129 H6         725.5573  -850.5920  -554.5160 H6            1 RES     
   18130 H6         726.4796  -852.8332  -552.6220 H6            1 RES     
   18131 H6         724.9996  -851.8081  -552.4825 H6            1 RES     
   18132 H6         724.2402  -852.6284  -554.7203 H6            1 RES     
   18133 H6         725.6748  -853.7510  -554.7728 H6            1 RES     
   18134 H6         724.8339  -854.6798  -552.5271 H6            1 RES     
   18135 H6         723.3469  -853.6930  -552.7331 H6            1 RES     
   18136 H6         724.3414  -856.0752  -554.4620 H6            1 RES     
   18137 H6         723.0288  -856.0314  -553.2490 H6            1 RES     
   18138 H6         721.7056  -854.4580  -554.7557 H6            1 RES     
   18139 H6         721.9820  -856.1369  -555.2785 H6            1 RES     
   18140 H6         723.5085  -853.7253  -556.3442 H6            1 RES     
   18141 H6         723.8569  -855.4070  -556.8277 H6            1 RES     
   18142 H6         722.5322  -853.9419  -558.3994 H6            1 RES     
   18143 H6         721.1616  -853.9291  -557.2609 H6            1 RES     
   18144 H6         720.9342  -855.4692  -559.2207 H6            1 RES     
   18145 H6         722.4406  -856.3307  -558.7807 H6            1 RES     
   18146 H6         720.4149  -857.6431  -558.3160 H6            1 RES     
   18147 H6         721.3093  -857.3552  -556.8205 H6            1 RES     
   18148 H6         718.8142  -855.7959  -557.7929 H6            1 RES     
   18149 H6         718.8518  -857.0568  -556.5022 H6            1 RES     
   18150 H6         719.6815  -855.4841  -556.2349 H6            1 RES     
   18151 C0         741.0491  -844.7126  -558.2156 C0            1 RES     
   18152 C1         740.1686  -844.1891  -557.0619 C1            1 RES     
   18153 C1         740.9039  -843.4353  -556.0256 C1            1 RES     
   18154 S2         740.0708  -843.8040  -554.4739 S2            1 RES     
   18155 C1         738.5919  -843.8706  -555.5095 C1            1 RES     
   18156 C1         738.8682  -844.2740  -556.8024 C1            1 RES     
   18157 C1         742.2596  -843.8684  -556.3298 C1            1 RES     
   18158 C1         742.3935  -844.5280  -557.5171 C1            1 RES     
   18159 C1         743.7303  -844.8543  -557.8087 C1            1 RES     
   18160 C1         744.6121  -844.3724  -556.8118 C1            1 RES     
   18161 S2         743.7217  -843.5682  -555.6097 S2            1 RES     
   18162 H3         738.1163  -844.7143  -557.4364 H3            1 RES     
   18163 H3         744.0441  -845.3909  -558.6954 H3            1 RES     
   18164 N4         746.6744  -845.5407  -557.4817 N4            1 RES     
   18165 C1         748.0168  -845.7907  -557.4366 C1            1 RES     
   18166 C1         748.8680  -845.0020  -556.6531 C1            1 RES     
   18167 C1         748.3144  -843.9566  -555.9248 C1            1 RES     
   18168 N4         749.0420  -843.1159  -555.1493 N4            1 RES     
   18169 S2         747.8857  -842.0971  -554.5556 S2            1 RES     
   18170 N4         746.4846  -842.6659  -555.2208 N4            1 RES     
   18171 C1         746.9136  -843.7187  -555.9660 C1            1 RES     
   18172 C1         746.0858  -844.5380  -556.7635 C1            1 RES     
   18173 H5         748.4288  -846.6126  -558.0078 H5            1 RES     
   18174 C0         740.9787  -843.7399  -559.4375 C0            1 RES     
   18175 C0         739.5947  -843.6714  -560.0907 C0            1 RES     
   18176 C0         739.4196  -842.6273  -561.1978 C0            1 RES     
   18177 C0         739.6041  -841.1622  -560.7714 C0            1 RES     
   18178 C0         738.8573  -840.8034  -559.4703 C0            1 RES     
   18179 C0         738.8162  -839.2899  -559.2268 C0            1 RES     
   18180 C0         737.7183  -838.6307  -560.0764 C0            1 RES     
   18181 C0         737.7023  -837.1121  -559.8980 C0            1 RES     
   18182 C0         736.4681  -836.5085  -560.5753 C0            1 RES     
   18183 C0         736.4584  -834.9757  -560.7412 C0            1 RES     
   18184 C0         736.5894  -834.1037  -559.4764 C0            1 RES     
   18185 C0         738.0440  -833.9416  -558.9810 C0            1 RES     
   18186 C0         738.2222  -833.0197  -557.7582 C0            1 RES     
   18187 C0         738.2487  -831.4934  -558.0134 C0            1 RES     
   18188 C0         736.9634  -830.8107  -558.5041 C0            1 RES     
   18189 C0         735.7748  -831.0454  -557.5740 C0            1 RES     
   18190 H6         741.2383  -842.7236  -559.0726 H6            1 RES     
   18191 H6         741.7356  -844.0230  -560.2012 H6            1 RES     
   18192 H6         739.3949  -844.6346  -560.5573 H6            1 RES     
   18193 H6         738.8181  -843.4798  -559.3275 H6            1 RES     
   18194 H6         740.0962  -842.8464  -562.0521 H6            1 RES     
   18195 H6         738.3733  -842.7393  -561.5611 H6            1 RES     
   18196 H6         740.6824  -840.9358  -560.6241 H6            1 RES     
   18197 H6         739.2481  -840.5481  -561.6242 H6            1 RES     
   18198 H6         737.8177  -841.1983  -559.4657 H6            1 RES     
   18199 H6         739.4066  -841.2804  -558.6305 H6            1 RES     
   18200 H6         739.8196  -838.8472  -559.4139 H6            1 RES     
   18201 H6         738.5524  -839.1096  -558.1615 H6            1 RES     
   18202 H6         737.8544  -838.8515  -561.1554 H6            1 RES     
   18203 H6         736.7407  -839.0531  -559.7516 H6            1 RES     
   18204 H6         737.6511  -836.8865  -558.8135 H6            1 RES     
   18205 H6         738.6349  -836.7006  -560.3423 H6            1 RES     
   18206 H6         736.3812  -836.9238  -561.6038 H6            1 RES     
   18207 H6         735.5681  -836.8298  -560.0044 H6            1 RES     
   18208 H6         737.2283  -834.6611  -561.4784 H6            1 RES     
   18209 H6         735.4659  -834.7504  -561.1919 H6            1 RES     
   18210 H6         735.9175  -834.4786  -558.6744 H6            1 RES     
   18211 H6         736.2236  -833.1152  -559.7792 H6            1 RES     
   18212 H6         738.4098  -834.9253  -558.6555 H6            1 RES     
   18213 H6         738.7104  -833.5960  -559.8010 H6            1 RES     
   18214 H6         739.2366  -833.2439  -557.3580 H6            1 RES     
   18215 H6         737.5003  -833.2938  -556.9603 H6            1 RES     
   18216 H6         738.5228  -831.0151  -557.0473 H6            1 RES     
   18217 H6         739.0618  -831.2648  -558.7367 H6            1 RES     
   18218 H6         737.1577  -829.7174  -558.5528 H6            1 RES     
   18219 H6         736.7195  -831.1166  -559.5360 H6            1 RES     
   18220 H6         736.0103  -830.6829  -556.5511 H6            1 RES     
   18221 H6         734.8924  -830.4900  -557.9554 H6            1 RES     
   18222 H6         735.5128  -832.1220  -557.5286 H6            1 RES     
   18223 C0         740.8528  -846.2389  -558.5934 C0            1 RES     
   18224 C0         739.3867  -846.7364  -558.6218 C0            1 RES     
   18225 C0         739.1237  -848.1611  -559.1558 C0            1 RES     
   18226 C0         739.1522  -848.3700  -560.6902 C0            1 RES     
   18227 C0         738.2878  -847.3398  -561.4466 C0            1 RES     
   18228 C0         737.9433  -847.7085  -562.8969 C0            1 RES     
   18229 C0         736.7752  -848.7061  -562.9637 C0            1 RES     
   18230 C0         736.3662  -849.0037  -564.4138 C0            1 RES     
   18231 C0         735.0857  -849.8485  -564.4475 C0            1 RES     
   18232 C0         734.6911  -850.4611  -565.8087 C0            1 RES     
   18233 C0         734.3539  -849.5176  -566.9829 C0            1 RES     
   18234 C0         735.5874  -848.9319  -567.7002 C0            1 RES     
   18235 C0         735.2738  -848.0647  -568.9381 C0            1 RES     
   18236 C0         734.9815  -848.7982  -570.2709 C0            1 RES     
   18237 C0         733.6951  -849.6302  -570.3865 C0            1 RES     
   18238 C0         732.4342  -848.8171  -570.0998 C0            1 RES     
   18239 H6         741.3565  -846.4226  -559.5670 H6            1 RES     
   18240 H6         741.3589  -846.8835  -557.8401 H6            1 RES     
   18241 H6         739.0599  -846.7570  -557.5616 H6            1 RES     
   18242 H6         738.7113  -846.0547  -559.1557 H6            1 RES     
   18243 H6         739.7883  -848.8959  -558.6529 H6            1 RES     
   18244 H6         738.0806  -848.4026  -558.8512 H6            1 RES     
   18245 H6         740.1893  -848.3321  -561.0886 H6            1 RES     
   18246 H6         738.7580  -849.3934  -560.8656 H6            1 RES     
   18247 H6         737.3377  -847.1284  -560.9080 H6            1 RES     
   18248 H6         738.8810  -846.4166  -561.4851 H6            1 RES     
   18249 H6         738.8453  -848.0720  -563.4362 H6            1 RES     
   18250 H6         737.5918  -846.7810  -563.3990 H6            1 RES     
   18251 H6         737.0400  -849.6548  -562.4514 H6            1 RES     
   18252 H6         735.9051  -848.2502  -562.4387 H6            1 RES     
   18253 H6         736.1650  -848.0386  -564.9176 H6            1 RES     
   18254 H6         737.2003  -849.5384  -564.9165 H6            1 RES     
   18255 H6         735.2256  -850.7128  -563.7613 H6            1 RES     
   18256 H6         734.2426  -849.2378  -564.0534 H6            1 RES     
   18257 H6         735.4572  -851.1958  -566.1377 H6            1 RES     
   18258 H6         733.7616  -851.0351  -565.5942 H6            1 RES     
   18259 H6         733.6550  -848.7188  -566.6526 H6            1 RES     
   18260 H6         733.8149  -850.1486  -567.7006 H6            1 RES     
   18261 H6         736.1012  -848.2622  -566.9964 H6            1 RES     
   18262 H6         736.3033  -849.7323  -567.9869 H6            1 RES     
   18263 H6         736.2054  -847.4920  -569.1459 H6            1 RES     
   18264 H6         734.4897  -847.3155  -568.6985 H6            1 RES     
   18265 H6         734.9321  -848.0157  -571.0603 H6            1 RES     
   18266 H6         735.8443  -849.4562  -570.5141 H6            1 RES     
   18267 H6         733.6316  -850.0126  -571.4287 H6            1 RES     
   18268 H6         733.7388  -850.5251  -569.7419 H6            1 RES     
   18269 H6         732.3702  -847.9508  -570.7919 H6            1 RES     
   18270 H6         731.5399  -849.4580  -570.2481 H6            1 RES     
   18271 H6         732.4289  -848.4506  -569.0530 H6            1 RES     
   18272 C0         753.7732  -846.1547  -558.2980 C0            1 RES     
   18273 C1         752.5694  -845.7105  -557.4413 C1            1 RES     
   18274 C1         752.8505  -845.6183  -555.9938 C1            1 RES     
   18275 S2         751.3233  -846.0966  -555.1711 S2            1 RES     
   18276 C1         750.5387  -845.3107  -556.5962 C1            1 RES     
   18277 C1         751.3151  -845.3872  -557.7374 C1            1 RES     
   18278 C1         754.0727  -846.4062  -555.9355 C1            1 RES     
   18279 C1         754.6266  -846.6881  -557.1506 C1            1 RES     
   18280 C1         755.8474  -847.3784  -557.0433 C1            1 RES     
   18281 C1         756.2199  -847.5683  -555.6909 C1            1 RES     
   18282 S2         755.0391  -846.8869  -554.6780 S2            1 RES     
   18283 H3         750.8885  -845.3149  -558.7243 H3            1 RES     
   18284 H3         756.4357  -847.7059  -557.8915 H3            1 RES     
   18285 N4         758.0790  -849.1558  -555.9912 N4            1 RES     
   18286 C1         759.1585  -849.8799  -555.5706 C1            1 RES     
   18287 C1         759.6665  -849.7248  -554.2751 C1            1 RES     
   18288 C1         759.0476  -848.8137  -553.4284 C1            1 RES     
   18289 N4         759.4637  -848.5652  -552.1624 N4            1 RES     
   18290 S2         758.3878  -847.4180  -551.6584 S2            1 RES     
   18291 N4         757.3951  -847.2130  -552.9629 N4            1 RES     
   18292 C1         757.9139  -848.0801  -553.8721 C1            1 RES     
   18293 C1         757.4267  -848.2668  -555.1838 C1            1 RES     
   18294 H5         759.6245  -850.5880  -556.2436 H5            1 RES     
   18295 C0         754.4864  -844.9102  -558.9198 C0            1 RES     
   18296 C0         753.6267  -844.1521  -559.9362 C0            1 RES     
   18297 C0         754.2093  -842.8401  -560.4707 C0            1 RES     
   18298 C0         754.4486  -841.7390  -559.4254 C0            1 RES     
   18299 C0         753.2568  -841.5325  -558.4682 C0            1 RES     
   18300 C0         753.3997  -840.2525  -557.6359 C0            1 RES     
   18301 C0         752.9940  -839.0194  -558.4583 C0            1 RES     
   18302 C0         753.1906  -837.7248  -557.6686 C0            1 RES     
   18303 C0         752.5748  -836.5417  -558.4220 C0            1 RES     
   18304 C0         752.9442  -835.1356  -557.9087 C0            1 RES     
   18305 C0         752.6215  -834.7856  -556.4423 C0            1 RES     
   18306 C0         753.6620  -835.3193  -555.4323 C0            1 RES     
   18307 C0         753.4094  -834.9301  -553.9621 C0            1 RES     
   18308 C0         753.8512  -833.5167  -553.5123 C0            1 RES     
   18309 C0         753.1179  -832.3000  -554.0961 C0            1 RES     
   18310 C0         751.6095  -832.3471  -553.8604 C0            1 RES     
   18311 H6         754.7321  -844.2147  -558.0895 H6            1 RES     
   18312 H6         755.4447  -845.2117  -559.3964 H6            1 RES     
   18313 H6         753.4911  -844.7925  -560.8063 H6            1 RES     
   18314 H6         752.6339  -843.9241  -559.5063 H6            1 RES     
   18315 H6         755.1545  -843.0291  -561.0242 H6            1 RES     
   18316 H6         753.4650  -842.4501  -561.2009 H6            1 RES     
   18317 H6         755.3458  -841.9761  -558.8134 H6            1 RES     
   18318 H6         754.6709  -840.8156  -559.9990 H6            1 RES     
   18319 H6         752.2874  -841.5031  -559.0123 H6            1 RES     
   18320 H6         753.2329  -842.4016  -557.7763 H6            1 RES     
   18321 H6         754.4347  -840.1727  -557.2356 H6            1 RES     
   18322 H6         752.6996  -840.3106  -556.7737 H6            1 RES     
   18323 H6         753.5834  -838.9464  -559.3957 H6            1 RES     
   18324 H6         751.9191  -839.1312  -558.7266 H6            1 RES     
   18325 H6         752.6721  -837.8261  -556.6936 H6            1 RES     
   18326 H6         754.2818  -837.5710  -557.5203 H6            1 RES     
   18327 H6         752.9113  -836.5740  -559.4820 H6            1 RES     
   18328 H6         751.4685  -836.6650  -558.4151 H6            1 RES     
   18329 H6         754.0172  -834.9217  -558.1036 H6            1 RES     
   18330 H6         752.3535  -834.4416  -558.5478 H6            1 RES     
   18331 H6         751.5895  -835.1075  -556.1838 H6            1 RES     
   18332 H6         752.6453  -833.6898  -556.4046 H6            1 RES     
   18333 H6         753.6282  -836.4175  -555.4491 H6            1 RES     
   18334 H6         754.6919  -835.0159  -555.7202 H6            1 RES     
   18335 H6         754.0432  -835.6163  -553.3563 H6            1 RES     
   18336 H6         752.3563  -835.1436  -553.6822 H6            1 RES     
   18337 H6         753.7172  -833.4787  -552.4087 H6            1 RES     
   18338 H6         754.9379  -833.3986  -553.7166 H6            1 RES     
   18339 H6         753.5204  -831.3910  -553.5990 H6            1 RES     
   18340 H6         753.3428  -832.1773  -555.1696 H6            1 RES     
   18341 H6         751.3928  -832.4141  -552.7733 H6            1 RES     
   18342 H6         751.1442  -831.4223  -554.2611 H6            1 RES     
   18343 H6         751.1539  -833.2158  -554.3778 H6            1 RES     
   18344 C0         753.4886  -847.3199  -559.3336 C0            1 RES     
   18345 C0         752.1497  -847.2156  -560.1044 C0            1 RES     
   18346 C0         751.9024  -848.2208  -561.2502 C0            1 RES     
   18347 C0         752.6197  -847.9639  -562.5986 C0            1 RES     
   18348 C0         752.4415  -846.5158  -563.1004 C0            1 RES     
   18349 C0         752.7681  -846.2887  -564.5836 C0            1 RES     
   18350 C0         751.6054  -846.7237  -565.4908 C0            1 RES     
   18351 C0         751.8904  -846.4102  -566.9670 C0            1 RES     
   18352 C0         750.6454  -846.6790  -567.8226 C0            1 RES     
   18353 C0         750.8390  -846.6752  -569.3545 C0            1 RES     
   18354 C0         751.2953  -845.3731  -570.0466 C0            1 RES     
   18355 C0         752.8086  -845.0950  -569.9401 C0            1 RES     
   18356 C0         753.3006  -843.8501  -570.7088 C0            1 RES     
   18357 C0         753.5448  -843.9989  -572.2314 C0            1 RES     
   18358 C0         752.3363  -844.2300  -573.1515 C0            1 RES     
   18359 C0         751.2776  -843.1361  -573.0275 C0            1 RES     
   18360 H6         754.3498  -847.3794  -560.0338 H6            1 RES     
   18361 H6         753.4364  -848.2957  -558.8006 H6            1 RES     
   18362 H6         751.3588  -847.4267  -559.3551 H6            1 RES     
   18363 H6         751.9591  -846.2098  -560.5018 H6            1 RES     
   18364 H6         752.0881  -849.2604  -560.9050 H6            1 RES     
   18365 H6         750.8164  -848.1429  -561.4818 H6            1 RES     
   18366 H6         753.7058  -848.1918  -562.5336 H6            1 RES     
   18367 H6         752.1668  -848.6723  -563.3242 H6            1 RES     
   18368 H6         751.4115  -846.1408  -562.9112 H6            1 RES     
   18369 H6         753.1477  -845.9056  -562.5219 H6            1 RES     
   18370 H6         753.7277  -846.7803  -564.8558 H6            1 RES     
   18371 H6         752.8876  -845.1934  -564.7316 H6            1 RES     
   18372 H6         751.4026  -847.8090  -565.3750 H6            1 RES     
   18373 H6         750.6980  -846.1579  -565.1793 H6            1 RES     
   18374 H6         752.1468  -845.3361  -567.0455 H6            1 RES     
   18375 H6         752.7411  -847.0390  -567.3067 H6            1 RES     
   18376 H6         750.2689  -847.6955  -567.5726 H6            1 RES     
   18377 H6         749.8538  -845.9479  -567.5437 H6            1 RES     
   18378 H6         751.5094  -847.5070  -569.6606 H6            1 RES     
   18379 H6         749.8287  -846.9061  -569.7611 H6            1 RES     
   18380 H6         750.6942  -844.5097  -569.6874 H6            1 RES     
   18381 H6         751.0539  -845.5224  -571.1065 H6            1 RES     
   18382 H6         753.0426  -844.8983  -568.8844 H6            1 RES     
   18383 H6         753.4031  -845.9789  -570.2576 H6            1 RES     
   18384 H6         754.3094  -843.6234  -570.2964 H6            1 RES     
   18385 H6         752.6604  -842.9728  -570.4770 H6            1 RES     
   18386 H6         754.0322  -843.0574  -572.5688 H6            1 RES     
   18387 H6         754.2719  -844.8234  -572.3985 H6            1 RES     
   18388 H6         752.7058  -844.2378  -574.2003 H6            1 RES     
   18389 H6         751.8914  -845.2261  -572.9840 H6            1 RES     
   18390 H6         751.7223  -842.1438  -573.2539 H6            1 RES     
   18391 H6         750.4578  -843.3319  -573.7501 H6            1 RES     
   18392 H6         750.8439  -843.1186  -572.0069 H6            1 RES     
   18393 C0         764.4297  -852.0493  -554.3379 C0            1 RES     
   18394 C1         763.0755  -851.4697  -553.8789 C1            1 RES     
   18395 C1         762.6422  -851.9170  -552.5391 C1            1 RES     
   18396 S2         760.8478  -852.0242  -552.6198 S2            1 RES     
   18397 C1         761.0101  -850.6241  -553.7500 C1            1 RES     
   18398 C1         762.2058  -850.6391  -554.4436 C1            1 RES     
   18399 C1         763.5077  -853.0763  -552.3810 C1            1 RES     
   18400 C1         764.5082  -853.1698  -553.3046 C1            1 RES     
   18401 C1         765.3681  -854.2567  -553.0648 C1            1 RES     
   18402 C1         765.0036  -854.9585  -551.8908 C1            1 RES     
   18403 S2         763.6407  -854.2238  -551.1928 S2            1 RES     
   18404 H3         762.3263  -850.1289  -555.3852 H3            1 RES     
   18405 H3         766.2137  -854.5110  -553.6917 H3            1 RES     
   18406 N4         766.4304  -856.9509  -552.1381 N4            1 RES     
   18407 C1         767.0129  -858.1084  -551.7051 C1            1 RES     
   18408 C1         766.8588  -858.5382  -550.3815 C1            1 RES     
   18409 C1         766.1013  -857.7569  -549.5180 C1            1 RES     
   18410 N4         765.9008  -858.0620  -548.2125 N4            1 RES     
   18411 S2         764.9617  -856.8044  -547.6986 S2            1 RES     
   18412 N4         764.7751  -855.8769  -549.0529 N4            1 RES     
   18413 C1         765.4853  -856.5644  -549.9859 C1            1 RES     
   18414 C1         765.6588  -856.1653  -551.3287 C1            1 RES     
   18415 H5         767.5959  -858.7058  -552.3941 H5            1 RES     
   18416 C0         765.5800  -851.0275  -554.0612 C0            1 RES     
   18417 C0         765.4772  -849.7448  -554.8925 C0            1 RES     
   18418 C0         766.4871  -848.6413  -554.5624 C0            1 RES     
   18419 C0         766.4067  -848.0639  -553.1403 C0            1 RES     
   18420 C0         764.9685  -847.7283  -552.6950 C0            1 RES     
   18421 C0         764.9422  -846.8950  -551.4080 C0            1 RES     
   18422 C0         765.2278  -845.4157  -551.7104 C0            1 RES     
   18423 C0         765.2706  -844.5765  -550.4328 C0            1 RES     
   18424 C0         765.3337  -843.0850  -550.7761 C0            1 RES     
   18425 C0         765.6784  -842.1291  -549.6167 C0            1 RES     
   18426 C0         764.7691  -842.1339  -548.3716 C0            1 RES     
   18427 C0         765.0735  -843.2825  -547.3838 C0            1 RES     
   18428 C0         764.2300  -843.2794  -546.0934 C0            1 RES     
   18429 C0         764.6685  -842.3247  -544.9568 C0            1 RES     
   18430 C0         764.5564  -840.8106  -545.1884 C0            1 RES     
   18431 C0         763.1426  -840.3709  -545.5640 C0            1 RES     
   18432 H6         765.5289  -850.7473  -552.9877 H6            1 RES     
   18433 H6         766.5699  -851.5032  -554.2344 H6            1 RES     
   18434 H6         765.6524  -850.0048  -555.9352 H6            1 RES     
   18435 H6         764.4658  -849.3075  -554.8018 H6            1 RES     
   18436 H6         767.5245  -848.9904  -554.7561 H6            1 RES     
   18437 H6         766.2747  -847.8102  -555.2719 H6            1 RES     
   18438 H6         766.8363  -848.7811  -552.4076 H6            1 RES     
   18439 H6         767.0510  -847.1607  -553.1397 H6            1 RES     
   18440 H6         764.4040  -847.1883  -553.4865 H6            1 RES     
   18441 H6         764.4481  -848.6909  -552.5020 H6            1 RES     
   18442 H6         765.6528  -847.3202  -550.6649 H6            1 RES     
   18443 H6         763.9190  -846.9446  -550.9748 H6            1 RES     
   18444 H6         766.1950  -845.2904  -552.2399 H6            1 RES     
   18445 H6         764.4138  -845.0430  -552.3724 H6            1 RES     
   18446 H6         764.3408  -844.7638  -549.8585 H6            1 RES     
   18447 H6         766.1643  -844.8828  -549.8463 H6            1 RES     
   18448 H6         766.1224  -842.9244  -551.5443 H6            1 RES     
   18449 H6         764.3590  -842.7921  -551.2268 H6            1 RES     
   18450 H6         766.7323  -842.2746  -549.2950 H6            1 RES     
   18451 H6         765.6132  -841.1124  -550.0649 H6            1 RES     
   18452 H6         763.6990  -842.1176  -548.6717 H6            1 RES     
   18453 H6         764.9847  -841.1859  -547.8642 H6            1 RES     
   18454 H6         764.8388  -844.2351  -547.8787 H6            1 RES     
   18455 H6         766.1523  -843.3058  -547.1167 H6            1 RES     
   18456 H6         764.3497  -844.2951  -545.6536 H6            1 RES     
   18457 H6         763.1527  -843.1658  -546.3372 H6            1 RES     
   18458 H6         764.0335  -842.5672  -544.0763 H6            1 RES     
   18459 H6         765.7199  -842.5571  -544.6789 H6            1 RES     
   18460 H6         764.8404  -840.3010  -544.2423 H6            1 RES     
   18461 H6         765.2861  -840.4683  -545.9423 H6            1 RES     
   18462 H6         762.4242  -840.6710  -544.7721 H6            1 RES     
   18463 H6         763.1157  -839.2663  -545.6707 H6            1 RES     
   18464 H6         762.8306  -840.8195  -546.5290 H6            1 RES     
   18465 C0         764.4542  -852.6696  -555.7959 C0            1 RES     
   18466 C0         763.6962  -851.8618  -556.8779 C0            1 RES     
   18467 C0         763.8366  -852.3219  -558.3451 C0            1 RES     
   18468 C0         765.1457  -851.9600  -559.0896 C0            1 RES     
   18469 C0         765.5148  -850.4682  -558.9520 C0            1 RES     
   18470 C0         766.5478  -849.9502  -559.9632 C0            1 RES     
   18471 C0         765.9011  -849.6429  -561.3238 C0            1 RES     
   18472 C0         766.9120  -849.0355  -562.3076 C0            1 RES     
   18473 C0         766.2024  -848.5664  -563.5847 C0            1 RES     
   18474 C0         767.1013  -848.1828  -564.7801 C0            1 RES     
   18475 C0         768.0764  -846.9956  -564.6307 C0            1 RES     
   18476 C0         769.3758  -847.3338  -563.8716 C0            1 RES     
   18477 C0         770.4070  -846.1876  -563.7970 C0            1 RES     
   18478 C0         771.3151  -845.9599  -565.0313 C0            1 RES     
   18479 C0         770.6750  -845.4519  -566.3324 C0            1 RES     
   18480 C0         769.9219  -844.1358  -566.1493 C0            1 RES     
   18481 H6         765.5149  -852.8304  -556.0864 H6            1 RES     
   18482 H6         763.9647  -853.6693  -555.7902 H6            1 RES     
   18483 H6         762.6197  -851.9801  -556.6365 H6            1 RES     
   18484 H6         763.9189  -850.7869  -556.8471 H6            1 RES     
   18485 H6         763.6283  -853.4096  -558.4353 H6            1 RES     
   18486 H6         763.0324  -851.7885  -558.8999 H6            1 RES     
   18487 H6         766.0004  -852.5768  -558.7367 H6            1 RES     
   18488 H6         764.9668  -852.2066  -560.1576 H6            1 RES     
   18489 H6         764.6152  -849.8167  -559.0113 H6            1 RES     
   18490 H6         765.9618  -850.3574  -557.9552 H6            1 RES     
   18491 H6         767.4042  -850.6546  -560.0480 H6            1 RES     
   18492 H6         766.9342  -848.9829  -559.5747 H6            1 RES     
   18493 H6         765.4608  -850.5615  -561.7652 H6            1 RES     
   18494 H6         765.0851  -848.9036  -561.1559 H6            1 RES     
   18495 H6         767.3782  -848.1573  -561.8207 H6            1 RES     
   18496 H6         767.6806  -849.8014  -562.5466 H6            1 RES     
   18497 H6         765.5626  -849.4003  -563.9489 H6            1 RES     
   18498 H6         765.5334  -847.7138  -563.3308 H6            1 RES     
   18499 H6         767.6599  -849.0721  -565.1436 H6            1 RES     
   18500 H6         766.3855  -847.8981  -565.5837 H6            1 RES     
   18501 H6         767.5580  -846.1193  -564.1845 H6            1 RES     
   18502 H6         768.3474  -846.7273  -565.6595 H6            1 RES     
   18503 H6         769.1098  -847.5562  -562.8287 H6            1 RES     
   18504 H6         769.8647  -848.2380  -564.2945 H6            1 RES     
   18505 H6         771.1180  -846.4770  -562.9908 H6            1 RES     
   18506 H6         769.9187  -845.2472  -563.4645 H6            1 RES     
   18507 H6         772.0771  -845.2069  -564.7309 H6            1 RES     
   18508 H6         771.8573  -846.9043  -565.2560 H6            1 RES     
   18509 H6         771.4914  -845.2849  -567.0687 H6            1 RES     
   18510 H6         770.0199  -846.2186  -566.7812 H6            1 RES     
   18511 H6         770.6042  -843.3551  -565.7510 H6            1 RES     
   18512 H6         769.5271  -843.7967  -567.1300 H6            1 RES     
   18513 H6         769.0659  -844.2625  -565.4556 H6            1 RES     
   18514 C0         770.5159  -862.3116  -549.6871 C0            1 RES     
   18515 C1         769.2495  -861.4405  -549.5541 C1            1 RES     
   18516 C1         768.1507  -862.0719  -548.7944 C1            1 RES     
   18517 S2         766.6316  -861.4877  -549.5618 S2            1 RES     
   18518 C1         767.5835  -859.9776  -549.8404 C1            1 RES     
   18519 C1         768.9362  -860.2231  -549.9844 C1            1 RES     
   18520 C1         768.5908  -863.4582  -548.8423 C1            1 RES     
   18521 C1         769.8710  -863.6341  -549.2814 C1            1 RES     
   18522 C1         770.2813  -864.9786  -549.2329 C1            1 RES     
   18523 C1         769.2713  -865.8110  -548.6939 C1            1 RES     
   18524 S2         767.9132  -864.8701  -548.3003 S2            1 RES     
   18525 H3         769.5889  -859.5394  -550.5019 H3            1 RES     
   18526 H3         771.2558  -865.3273  -549.5516 H3            1 RES     
   18527 N4         770.2237  -868.0188  -549.2280 N4            1 RES     
   18528 C1         770.2903  -869.3812  -549.1510 C1            1 RES     
   18529 C1         769.4418  -870.0942  -548.2953 C1            1 RES     
   18530 C1         768.5323  -869.3819  -547.5238 C1            1 RES     
   18531 N4         767.6770  -869.9625  -546.6469 N4            1 RES     
   18532 S2         766.8718  -868.6602  -546.0278 S2            1 RES     
   18533 N4         767.5400  -867.3742  -546.8208 N4            1 RES     
   18534 C1         768.4605  -867.9660  -547.6271 C1            1 RES     
   18535 C1         769.3288  -867.2816  -548.5046 C1            1 RES     
   18536 H5         771.0027  -869.9188  -549.7633 H5            1 RES     
   18537 C0         771.5677  -861.9106  -548.6022 C0            1 RES     
   18538 C0         772.1268  -860.4955  -548.7804 C0            1 RES     
   18539 C0         773.0488  -859.9867  -547.6678 C0            1 RES     
   18540 C0         772.4123  -859.8661  -546.2740 C0            1 RES     
   18541 C0         771.0330  -859.1757  -546.2872 C0            1 RES     
   18542 C0         770.5574  -858.8090  -544.8762 C0            1 RES     
   18543 C0         771.2346  -857.5177  -544.3911 C0            1 RES     
   18544 C0         770.8237  -857.1683  -542.9601 C0            1 RES     
   18545 C0         771.3323  -855.7730  -542.5848 C0            1 RES     
   18546 C0         771.2592  -855.3959  -541.0917 C0            1 RES     
   18547 C0         769.8842  -855.4347  -540.3953 C0            1 RES     
   18548 C0         769.4491  -856.8511  -539.9569 C0            1 RES     
   18549 C0         768.1103  -856.9203  -539.1956 C0            1 RES     
   18550 C0         768.1283  -856.5719  -537.6877 C0            1 RES     
   18551 C0         768.4378  -855.1254  -537.2742 C0            1 RES     
   18552 C0         767.4921  -854.1105  -537.9133 C0            1 RES     
   18553 H6         771.0653  -861.9606  -547.6130 H6            1 RES     
   18554 H6         772.4058  -862.6412  -548.5873 H6            1 RES     
   18555 H6         772.7248  -860.4821  -549.6902 H6            1 RES     
   18556 H6         771.3023  -859.7667  -548.8878 H6            1 RES     
   18557 H6         773.9619  -860.6167  -547.5985 H6            1 RES     
   18558 H6         773.3678  -858.9662  -547.9778 H6            1 RES     
   18559 H6         772.2904  -860.8720  -545.8169 H6            1 RES     
   18560 H6         773.1398  -859.3038  -545.6530 H6            1 RES     
   18561 H6         771.0331  -858.2597  -546.9177 H6            1 RES     
   18562 H6         770.3077  -859.8927  -546.7281 H6            1 RES     
   18563 H6         770.7280  -859.6627  -544.1835 H6            1 RES     
   18564 H6         769.4643  -858.6068  -544.9123 H6            1 RES     
   18565 H6         772.3405  -857.6043  -544.4228 H6            1 RES     
   18566 H6         770.9264  -856.6965  -545.0769 H6            1 RES     
   18567 H6         769.7163  -857.1634  -542.9041 H6            1 RES     
   18568 H6         771.2492  -857.9378  -542.2793 H6            1 RES     
   18569 H6         772.4063  -855.6929  -542.8641 H6            1 RES     
   18570 H6         770.7699  -855.0258  -543.1885 H6            1 RES     
   18571 H6         771.9797  -856.0038  -540.5030 H6            1 RES     
   18572 H6         771.6156  -854.3421  -541.0526 H6            1 RES     
   18573 H6         769.1143  -854.9413  -541.0272 H6            1 RES     
   18574 H6         770.0109  -854.8256  -539.4922 H6            1 RES     
   18575 H6         769.2993  -857.4611  -540.8585 H6            1 RES     
   18576 H6         770.2408  -857.3442  -539.3521 H6            1 RES     
   18577 H6         767.8048  -857.9906  -539.2214 H6            1 RES     
   18578 H6         767.3263  -856.3550  -539.7421 H6            1 RES     
   18579 H6         767.1163  -856.8134  -537.2943 H6            1 RES     
   18580 H6         768.8507  -857.2427  -537.1732 H6            1 RES     
   18581 H6         768.3279  -855.0576  -536.1702 H6            1 RES     
   18582 H6         769.4898  -854.8676  -537.4857 H6            1 RES     
   18583 H6         766.4397  -854.3464  -537.6483 H6            1 RES     
   18584 H6         767.7351  -853.0936  -537.5401 H6            1 RES     
   18585 H6         767.5989  -854.1086  -539.0172 H6            1 RES     
   18586 C0         771.1132  -862.4392  -551.1492 C0            1 RES     
   18587 C0         771.1386  -861.1305  -551.9765 C0            1 RES     
   18588 C0         771.8707  -861.1562  -553.3358 C0            1 RES     
   18589 C0         773.4183  -861.0953  -553.3196 C0            1 RES     
   18590 C0         773.9591  -859.9530  -552.4345 C0            1 RES     
   18591 C0         775.4280  -859.5749  -552.6733 C0            1 RES     
   18592 C0         775.5845  -858.6668  -553.9041 C0            1 RES     
   18593 C0         777.0388  -858.2097  -554.0901 C0            1 RES     
   18594 C0         777.1330  -857.1604  -555.2057 C0            1 RES     
   18595 C0         778.5490  -856.7978  -555.7031 C0            1 RES     
   18596 C0         779.5439  -856.1492  -554.7171 C0            1 RES     
   18597 C0         780.2280  -857.1458  -553.7590 C0            1 RES     
   18598 C0         781.2987  -856.5319  -552.8319 C0            1 RES     
   18599 C0         782.7108  -856.2989  -553.4247 C0            1 RES     
   18600 C0         782.8835  -855.2335  -554.5182 C0            1 RES     
   18601 C0         782.4072  -853.8501  -554.0800 C0            1 RES     
   18602 H6         772.1293  -862.8829  -551.0711 H6            1 RES     
   18603 H6         770.4967  -863.1452  -551.7498 H6            1 RES     
   18604 H6         770.0781  -860.9130  -552.2202 H6            1 RES     
   18605 H6         771.5238  -860.2715  -551.4112 H6            1 RES     
   18606 H6         771.5237  -862.0142  -553.9505 H6            1 RES     
   18607 H6         771.5510  -860.2281  -553.8607 H6            1 RES     
   18608 H6         773.8615  -862.0560  -552.9789 H6            1 RES     
   18609 H6         773.7276  -860.9333  -554.3739 H6            1 RES     
   18610 H6         773.3437  -859.0317  -552.5339 H6            1 RES     
   18611 H6         773.8869  -860.3118  -551.3993 H6            1 RES     
   18612 H6         776.0649  -860.4846  -552.7315 H6            1 RES     
   18613 H6         775.7615  -858.9760  -551.7981 H6            1 RES     
   18614 H6         775.2395  -859.1874  -554.8220 H6            1 RES     
   18615 H6         774.9492  -857.7654  -553.7475 H6            1 RES     
   18616 H6         777.3763  -857.7476  -553.1423 H6            1 RES     
   18617 H6         777.6623  -859.0964  -554.3341 H6            1 RES     
   18618 H6         776.5968  -857.5561  -556.0964 H6            1 RES     
   18619 H6         776.6046  -856.2379  -554.8760 H6            1 RES     
   18620 H6         779.0282  -857.6802  -556.1795 H6            1 RES     
   18621 H6         778.3756  -856.0485  -556.5079 H6            1 RES     
   18622 H6         779.0571  -855.3174  -554.1631 H6            1 RES     
   18623 H6         780.3200  -855.7083  -555.3551 H6            1 RES     
   18624 H6         779.4582  -857.5522  -553.0880 H6            1 RES     
   18625 H6         780.6729  -857.9983  -554.3164 H6            1 RES     
   18626 H6         781.4658  -857.2844  -552.0288 H6            1 RES     
   18627 H6         780.9045  -855.6210  -552.3337 H6            1 RES     
   18628 H6         783.3664  -856.0005  -552.5768 H6            1 RES     
   18629 H6         783.0987  -857.2648  -553.8158 H6            1 RES     
   18630 H6         783.9672  -855.1673  -554.7583 H6            1 RES     
   18631 H6         782.3878  -855.5394  -555.4558 H6            1 RES     
   18632 H6         782.9530  -853.5269  -553.1683 H6            1 RES     
   18633 H6         782.6039  -853.1178  -554.8909 H6            1 RES     
   18634 H6         781.3177  -853.8537  -553.8724 H6            1 RES     
   18635 C0         771.5075  -874.9665  -547.9961 C0            1 RES     
   18636 C1         770.5288  -873.7740  -547.9765 C1            1 RES     
   18637 C1         769.1017  -874.1541  -548.0183 C1            1 RES     
   18638 S2         768.2811  -872.8576  -548.9584 S2            1 RES     
   18639 C1         769.5236  -871.7894  -548.1972 C1            1 RES     
   18640 C1         770.7032  -872.4577  -547.9275 C1            1 RES     
   18641 C1         769.2316  -875.5251  -548.4889 C1            1 RES     
   18642 C1         770.5038  -876.0185  -548.4600 C1            1 RES     
   18643 C1         770.5703  -877.3701  -548.8439 C1            1 RES     
   18644 C1         769.2855  -877.8952  -549.1216 C1            1 RES     
   18645 S2         768.1173  -876.6843  -548.8900 S2            1 RES     
   18646 H3         771.6427  -871.9397  -547.8258 H3            1 RES     
   18647 H3         771.4894  -877.9400  -548.9007 H3            1 RES     
   18648 N4         769.9268  -880.0356  -550.1580 N4            1 RES     
   18649 C1         769.6818  -881.2859  -550.6513 C1            1 RES     
   18650 C1         768.4073  -881.8578  -550.5571 C1            1 RES     
   18651 C1         767.3981  -881.1237  -549.9467 C1            1 RES     
   18652 N4         766.1333  -881.5824  -549.7809 N4            1 RES     
   18653 S2         765.4011  -880.3206  -549.0068 S2            1 RES     
   18654 N4         766.6029  -879.1952  -548.8705 N4            1 RES     
   18655 C1         767.6616  -879.8166  -549.4542 C1            1 RES     
   18656 C1         768.9580  -879.2707  -549.5714 C1            1 RES     
   18657 H5         770.4801  -881.8405  -551.1273 H5            1 RES     
   18658 C0         771.9678  -875.3157  -546.5434 C0            1 RES     
   18659 C0         772.8072  -874.2175  -545.8830 C0            1 RES     
   18660 C0         773.1640  -874.4323  -544.4088 C0            1 RES     
   18661 C0         771.9760  -874.5037  -543.4362 C0            1 RES     
   18662 C0         770.9353  -873.3866  -543.6559 C0            1 RES     
   18663 C0         769.9248  -873.3045  -542.5055 C0            1 RES     
   18664 C0         770.5242  -872.5540  -541.3059 C0            1 RES     
   18665 C0         769.5562  -872.5167  -540.1226 C0            1 RES     
   18666 C0         770.0839  -871.5805  -539.0311 C0            1 RES     
   18667 C0         769.3809  -871.6604  -537.6613 C0            1 RES     
   18668 C0         767.8627  -871.3977  -537.6034 C0            1 RES     
   18669 C0         767.0048  -872.6189  -538.0038 C0            1 RES     
   18670 C0         765.4807  -872.4154  -537.8919 C0            1 RES     
   18671 C0         764.8431  -872.5581  -536.4889 C0            1 RES     
   18672 C0         765.1919  -871.5154  -535.4166 C0            1 RES     
   18673 C0         764.8851  -870.0855  -535.8576 C0            1 RES     
   18674 H6         771.0547  -875.4676  -545.9295 H6            1 RES     
   18675 H6         772.5362  -876.2713  -546.5369 H6            1 RES     
   18676 H6         773.7569  -874.1561  -546.4119 H6            1 RES     
   18677 H6         772.2943  -873.2412  -545.9619 H6            1 RES     
   18678 H6         773.7902  -875.3425  -544.2870 H6            1 RES     
   18679 H6         773.7840  -873.5562  -544.1135 H6            1 RES     
   18680 H6         771.4572  -875.4822  -543.5316 H6            1 RES     
   18681 H6         772.4116  -874.4555  -542.4169 H6            1 RES     
   18682 H6         771.4151  -872.3919  -543.7868 H6            1 RES     
   18683 H6         770.3853  -873.6252  -544.5914 H6            1 RES     
   18684 H6         769.5735  -874.3247  -542.2342 H6            1 RES     
   18685 H6         769.0452  -872.7162  -542.8480 H6            1 RES     
   18686 H6         771.4696  -873.0249  -540.9655 H6            1 RES     
   18687 H6         770.7480  -871.5143  -541.6355 H6            1 RES     
   18688 H6         768.5819  -872.1246  -540.4784 H6            1 RES     
   18689 H6         769.4453  -873.5520  -539.7323 H6            1 RES     
   18690 H6         771.1528  -871.8196  -538.8361 H6            1 RES     
   18691 H6         770.0363  -870.5375  -539.4171 H6            1 RES     
   18692 H6         769.5982  -872.6336  -537.1706 H6            1 RES     
   18693 H6         769.8725  -870.8712  -537.0493 H6            1 RES     
   18694 H6         767.6015  -870.4948  -538.1968 H6            1 RES     
   18695 H6         767.6580  -871.1718  -536.5500 H6            1 RES     
   18696 H6         767.1888  -872.8375  -539.0648 H6            1 RES     
   18697 H6         767.2978  -873.5214  -537.4248 H6            1 RES     
   18698 H6         765.0231  -873.2416  -538.4814 H6            1 RES     
   18699 H6         765.1806  -871.4690  -538.3890 H6            1 RES     
   18700 H6         763.7412  -872.5178  -536.6357 H6            1 RES     
   18701 H6         765.0852  -873.5658  -536.0857 H6            1 RES     
   18702 H6         764.5832  -871.7403  -534.5142 H6            1 RES     
   18703 H6         766.2443  -871.6094  -535.0977 H6            1 RES     
   18704 H6         763.8112  -869.9878  -536.1229 H6            1 RES     
   18705 H6         765.1127  -869.3859  -535.0262 H6            1 RES     
   18706 H6         765.5047  -869.7979  -536.7312 H6            1 RES     
   18707 C0         772.6933  -874.8668  -549.0424 C0            1 RES     
   18708 C0         773.3652  -873.4767  -549.1594 C0            1 RES     
   18709 C0         774.6372  -873.3664  -550.0279 C0            1 RES     
   18710 C0         775.9667  -873.8823  -549.4238 C0            1 RES     
   18711 C0         776.2291  -873.3315  -548.0066 C0            1 RES     
   18712 C0         777.6750  -873.4635  -547.5068 C0            1 RES     
   18713 C0         778.5742  -872.3562  -548.0807 C0            1 RES     
   18714 C0         779.9977  -872.4287  -547.5088 C0            1 RES     
   18715 C0         780.8159  -871.2079  -547.9499 C0            1 RES     
   18716 C0         782.3371  -871.2582  -547.6900 C0            1 RES     
   18717 C0         782.8440  -871.3388  -546.2343 C0            1 RES     
   18718 C0         782.7779  -872.7508  -545.6171 C0            1 RES     
   18719 C0         783.3711  -872.8724  -544.1972 C0            1 RES     
   18720 C0         784.9094  -873.0076  -544.0729 C0            1 RES     
   18721 C0         785.7874  -871.8078  -544.4602 C0            1 RES     
   18722 C0         785.4392  -870.5411  -543.6812 C0            1 RES     
   18723 H6         773.4398  -875.6526  -548.7964 H6            1 RES     
   18724 H6         772.3149  -875.0884  -550.0656 H6            1 RES     
   18725 H6         772.6158  -872.8257  -549.6552 H6            1 RES     
   18726 H6         773.5921  -873.0250  -548.1845 H6            1 RES     
   18727 H6         774.4668  -873.8166  -551.0294 H6            1 RES     
   18728 H6         774.7950  -872.2755  -550.1830 H6            1 RES     
   18729 H6         775.9964  -874.9930  -549.3900 H6            1 RES     
   18730 H6         776.7673  -873.5419  -550.1142 H6            1 RES     
   18731 H6         775.9289  -872.2638  -547.9204 H6            1 RES     
   18732 H6         775.6025  -873.9268  -547.3294 H6            1 RES     
   18733 H6         778.0712  -874.4824  -547.7107 H6            1 RES     
   18734 H6         777.6587  -873.3139  -546.4053 H6            1 RES     
   18735 H6         778.6162  -872.4199  -549.1883 H6            1 RES     
   18736 H6         778.1306  -871.3743  -547.7983 H6            1 RES     
   18737 H6         779.9235  -872.4228  -546.4042 H6            1 RES     
   18738 H6         780.4757  -873.3676  -547.8616 H6            1 RES     
   18739 H6         780.7055  -871.0994  -549.0515 H6            1 RES     
   18740 H6         780.3853  -870.2973  -547.4763 H6            1 RES     
   18741 H6         782.8035  -872.0721  -548.2859 H6            1 RES     
   18742 H6         782.7192  -870.2961  -548.0996 H6            1 RES     
   18743 H6         782.3241  -870.5895  -545.5987 H6            1 RES     
   18744 H6         783.8996  -871.0449  -546.2908 H6            1 RES     
   18745 H6         781.7187  -873.0262  -545.5161 H6            1 RES     
   18746 H6         783.2594  -873.5021  -546.2797 H6            1 RES     
   18747 H6         782.9839  -873.8344  -543.7927 H6            1 RES     
   18748 H6         782.9726  -872.0706  -543.5401 H6            1 RES     
   18749 H6         785.1236  -873.2331  -543.0047 H6            1 RES     
   18750 H6         785.2406  -873.8872  -544.6671 H6            1 RES     
   18751 H6         786.8433  -872.0743  -544.2351 H6            1 RES     
   18752 H6         785.7516  -871.6210  -545.5475 H6            1 RES     
   18753 H6         785.5338  -870.7233  -542.5896 H6            1 RES     
   18754 H6         786.1380  -869.7274  -543.9679 H6            1 RES     
   18755 H6         784.4062  -870.2077  -543.9085 H6            1 RES     
   18756 C0         769.0850  -887.0032  -551.6345 C0            1 RES     
   18757 C1         768.4695  -885.5984  -551.4667 C1            1 RES     
   18758 C1         767.1932  -885.4008  -552.1843 C1            1 RES     
   18759 S2         767.1923  -883.6795  -552.7085 S2            1 RES     
   18760 C1         768.1004  -883.4137  -551.1694 C1            1 RES     
   18761 C1         768.8517  -884.5140  -550.8008 C1            1 RES     
   18762 C1         767.2627  -886.5206  -553.1112 C1            1 RES     
   18763 C1         768.2424  -887.4293  -552.8336 C1            1 RES     
   18764 C1         768.2198  -888.5343  -553.7037 C1            1 RES     
   18765 C1         767.1499  -888.4473  -554.6265 C1            1 RES     
   18766 S2         766.2744  -887.0195  -554.3444 S2            1 RES     
   18767 H3         769.7085  -884.4294  -550.1528 H3            1 RES     
   18768 H3         768.9232  -889.3564  -553.6585 H3            1 RES     
   18769 N4         767.7781  -890.2667  -556.1633 N4            1 RES     
   18770 C1         767.5607  -891.1363  -557.1944 C1            1 RES     
   18771 C1         766.3128  -891.2038  -557.8256 C1            1 RES     
   18772 C1         765.2995  -890.3668  -557.3756 C1            1 RES     
   18773 N4         764.0477  -890.3590  -557.8957 N4            1 RES     
   18774 S2         763.2961  -889.2051  -556.9839 S2            1 RES     
   18775 N4         764.4793  -888.6901  -555.9524 N4            1 RES     
   18776 C1         765.5441  -889.4535  -556.3142 C1            1 RES     
   18777 C1         766.8168  -889.4102  -555.7051 C1            1 RES     
   18778 H5         768.3640  -891.7774  -557.5336 H5            1 RES     
   18779 C0         768.7167  -887.9073  -550.4135 C0            1 RES     
   18780 C0         769.3337  -887.4382  -549.0920 C0            1 RES     
   18781 C0         768.8926  -888.1922  -547.8336 C0            1 RES     
   18782 C0         767.3963  -888.1079  -547.4928 C0            1 RES     
   18783 C0         766.8275  -886.6766  -547.5778 C0            1 RES     
   18784 C0         765.4279  -886.5739  -546.9595 C0            1 RES     
   18785 C0         765.5139  -886.4831  -545.4279 C0            1 RES     
   18786 C0         764.1264  -886.4452  -544.7861 C0            1 RES     
   18787 C0         764.2388  -886.1323  -543.2909 C0            1 RES     
   18788 C0         762.9662  -886.3494  -542.4480 C0            1 RES     
   18789 C0         761.6894  -885.5802  -542.8420 C0            1 RES     
   18790 C0         760.9083  -886.2277  -544.0075 C0            1 RES     
   18791 C0         759.5891  -885.5246  -544.3843 C0            1 RES     
   18792 C0         758.3444  -885.8309  -543.5169 C0            1 RES     
   18793 C0         758.3335  -885.3530  -542.0574 C0            1 RES     
   18794 C0         758.5599  -883.8483  -541.9241 C0            1 RES     
   18795 H6         767.6117  -887.8889  -550.3035 H6            1 RES     
   18796 H6         769.0145  -888.9607  -550.6084 H6            1 RES     
   18797 H6         770.4120  -887.5750  -549.1569 H6            1 RES     
   18798 H6         769.1221  -886.3655  -548.9280 H6            1 RES     
   18799 H6         769.1936  -889.2606  -547.8926 H6            1 RES     
   18800 H6         769.4530  -887.7317  -546.9891 H6            1 RES     
   18801 H6         766.8071  -888.7547  -548.1786 H6            1 RES     
   18802 H6         767.2914  -888.5244  -546.4698 H6            1 RES     
   18803 H6         767.4946  -885.9348  -547.0865 H6            1 RES     
   18804 H6         766.7572  -886.4112  -548.6544 H6            1 RES     
   18805 H6         764.7988  -887.4266  -547.2986 H6            1 RES     
   18806 H6         764.9529  -885.6324  -547.3130 H6            1 RES     
   18807 H6         766.0692  -887.3443  -545.0021 H6            1 RES     
   18808 H6         766.0655  -885.5495  -545.1753 H6            1 RES     
   18809 H6         763.5383  -885.6384  -545.2687 H6            1 RES     
   18810 H6         763.6432  -887.4340  -544.9454 H6            1 RES     
   18811 H6         765.0145  -886.7911  -542.8413 H6            1 RES     
   18812 H6         764.5855  -885.0801  -543.1826 H6            1 RES     
   18813 H6         762.7283  -887.4328  -542.3779 H6            1 RES     
   18814 H6         763.2483  -886.0121  -541.4254 H6            1 RES     
   18815 H6         761.9251  -884.5128  -543.0431 H6            1 RES     
   18816 H6         761.0544  -885.6161  -541.9487 H6            1 RES     
   18817 H6         761.5306  -886.1756  -544.9116 H6            1 RES     
   18818 H6         760.7067  -887.3023  -543.8066 H6            1 RES     
   18819 H6         759.3182  -885.9136  -545.3917 H6            1 RES     
   18820 H6         759.7539  -884.4327  -544.5014 H6            1 RES     
   18821 H6         757.4787  -885.3498  -544.0234 H6            1 RES     
   18822 H6         758.1629  -886.9280  -543.5249 H6            1 RES     
   18823 H6         757.3370  -885.5951  -541.6288 H6            1 RES     
   18824 H6         759.0641  -885.9141  -541.4495 H6            1 RES     
   18825 H6         757.7860  -883.2917  -542.4939 H6            1 RES     
   18826 H6         758.4935  -883.5583  -540.8546 H6            1 RES     
   18827 H6         759.5642  -883.5633  -542.2982 H6            1 RES     
   18828 C0         770.6202  -887.0399  -552.0251 C0            1 RES     
   18829 C0         771.5223  -886.0231  -551.2835 C0            1 RES     
   18830 C0         773.0483  -886.1343  -551.4910 C0            1 RES     
   18831 C0         773.7978  -887.2532  -550.7260 C0            1 RES     
   18832 C0         773.4522  -887.2797  -549.2225 C0            1 RES     
   18833 C0         774.4259  -888.0713  -548.3376 C0            1 RES     
   18834 C0         775.6859  -887.2526  -548.0119 C0            1 RES     
   18835 C0         776.6176  -888.0047  -547.0500 C0            1 RES     
   18836 C0         777.7669  -887.0954  -546.5955 C0            1 RES     
   18837 C0         778.9357  -887.7716  -545.8468 C0            1 RES     
   18838 C0         778.6582  -888.4565  -544.4916 C0            1 RES     
   18839 C0         778.0317  -889.8611  -544.6074 C0            1 RES     
   18840 C0         777.8372  -890.6031  -543.2678 C0            1 RES     
   18841 C0         779.0690  -891.3207  -542.6614 C0            1 RES     
   18842 C0         780.2397  -890.4675  -542.1495 C0            1 RES     
   18843 C0         779.8156  -889.4510  -541.0913 C0            1 RES     
   18844 H6         770.9890  -888.0790  -551.8843 H6            1 RES     
   18845 H6         770.7422  -886.7963  -553.1044 H6            1 RES     
   18846 H6         771.2442  -885.0285  -551.6896 H6            1 RES     
   18847 H6         771.3384  -885.9940  -550.2013 H6            1 RES     
   18848 H6         773.2936  -886.1749  -552.5739 H6            1 RES     
   18849 H6         773.4700  -885.1828  -551.0963 H6            1 RES     
   18850 H6         773.5909  -888.2550  -551.1611 H6            1 RES     
   18851 H6         774.8798  -887.0415  -550.8599 H6            1 RES     
   18852 H6         773.3617  -886.2526  -548.8051 H6            1 RES     
   18853 H6         772.4759  -887.7761  -549.1448 H6            1 RES     
   18854 H6         774.6643  -889.0558  -548.7964 H6            1 RES     
   18855 H6         773.9145  -888.2576  -547.3682 H6            1 RES     
   18856 H6         776.2391  -886.9982  -548.9402 H6            1 RES     
   18857 H6         775.3622  -886.3066  -547.5211 H6            1 RES     
   18858 H6         776.0271  -888.2977  -546.1605 H6            1 RES     
   18859 H6         777.0129  -888.9046  -547.5681 H6            1 RES     
   18860 H6         778.2201  -886.6349  -547.5011 H6            1 RES     
   18861 H6         777.3489  -886.2734  -545.9723 H6            1 RES     
   18862 H6         779.4616  -888.4853  -546.5169 H6            1 RES     
   18863 H6         779.6460  -886.9408  -545.6357 H6            1 RES     
   18864 H6         778.0549  -887.7920  -543.8356 H6            1 RES     
   18865 H6         779.6465  -888.5656  -544.0277 H6            1 RES     
   18866 H6         777.0226  -889.7474  -545.0279 H6            1 RES     
   18867 H6         778.6146  -890.5054  -545.3005 H6            1 RES     
   18868 H6         777.1249  -891.4305  -543.4849 H6            1 RES     
   18869 H6         777.3379  -889.9429  -542.5275 H6            1 RES     
   18870 H6         778.6978  -891.9125  -541.7954 H6            1 RES     
   18871 H6         779.4655  -892.0435  -543.4075 H6            1 RES     
   18872 H6         780.9845  -891.1546  -541.6916 H6            1 RES     
   18873 H6         780.7652  -889.9693  -542.9825 H6            1 RES     
   18874 H6         779.3392  -889.9678  -540.2313 H6            1 RES     
   18875 H6         780.7095  -888.9030  -540.7265 H6            1 RES     
   18876 H6         779.1044  -888.7125  -541.5142 H6            1 RES     
   18877 C0         766.4067  -895.6785  -560.6653 C0            1 RES     
   18878 C1         766.0728  -894.2625  -560.1517 C1            1 RES     
   18879 C1         765.3612  -893.4108  -561.1269 C1            1 RES     
   18880 S2         765.9461  -891.7358  -560.8265 S2            1 RES     
   18881 C1         766.0398  -892.2857  -559.1082 C1            1 RES     
   18882 C1         766.2929  -893.6403  -558.9985 C1            1 RES     
   18883 C1         765.6459  -894.1522  -562.3464 C1            1 RES     
   18884 C1         766.1754  -895.3942  -562.1469 C1            1 RES     
   18885 C1         766.3569  -896.1058  -563.3466 C1            1 RES     
   18886 C1         765.8987  -895.3666  -564.4635 C1            1 RES     
   18887 S2         765.2920  -893.8691  -563.9404 S2            1 RES     
   18888 H3         766.7334  -894.0692  -558.1134 H3            1 RES     
   18889 H3         766.7777  -897.1019  -563.4033 H3            1 RES     
   18890 N4         766.8173  -896.7505  -566.2823 N4            1 RES     
   18891 C1         766.9549  -897.1355  -567.5859 C1            1 RES     
   18892 C1         766.1746  -896.5538  -568.5925 C1            1 RES     
   18893 C1         765.2546  -895.5771  -568.2327 C1            1 RES     
   18894 N4         764.4326  -894.9601  -569.1166 N4            1 RES     
   18895 S2         763.5776  -893.9350  -568.1441 S2            1 RES     
   18896 N4         764.1980  -894.2158  -566.6389 N4            1 RES     
   18897 C1         765.1344  -895.1723  -566.8754 C1            1 RES     
   18898 C1         765.9417  -895.7779  -565.8885 C1            1 RES     
   18899 H5         767.6803  -897.8952  -567.8470 H5            1 RES     
   18900 C0         765.3316  -896.7020  -560.1750 C0            1 RES     
   18901 C0         765.3196  -896.9021  -558.6563 C0            1 RES     
   18902 C0         764.1934  -897.7774  -558.0976 C0            1 RES     
   18903 C0         762.7653  -897.2570  -558.3257 C0            1 RES     
   18904 C0         762.5973  -895.7603  -557.9929 C0            1 RES     
   18905 C0         761.1231  -895.3406  -557.9482 C0            1 RES     
   18906 C0         760.4821  -895.7427  -556.6107 C0            1 RES     
   18907 C0         758.9943  -895.3916  -556.5698 C0            1 RES     
   18908 C0         758.4366  -895.5965  -555.1579 C0            1 RES     
   18909 C0         756.9014  -895.5719  -555.0175 C0            1 RES     
   18910 C0         756.1460  -894.3104  -555.4814 C0            1 RES     
   18911 C0         755.9082  -894.2540  -557.0071 C0            1 RES     
   18912 C0         755.0954  -893.0404  -557.5004 C0            1 RES     
   18913 C0         753.5550  -893.1119  -557.3675 C0            1 RES     
   18914 C0         752.9409  -893.1155  -555.9598 C0            1 RES     
   18915 C0         753.3640  -891.9084  -555.1249 C0            1 RES     
   18916 H6         764.3362  -896.3147  -560.4795 H6            1 RES     
   18917 H6         765.4747  -897.6837  -560.6772 H6            1 RES     
   18918 H6         766.2474  -897.3974  -558.3748 H6            1 RES     
   18919 H6         765.2687  -895.9257  -558.1400 H6            1 RES     
   18920 H6         764.2714  -898.8135  -558.4924 H6            1 RES     
   18921 H6         764.3592  -897.8239  -556.9978 H6            1 RES     
   18922 H6         762.4626  -897.4113  -559.3842 H6            1 RES     
   18923 H6         762.1053  -897.8878  -557.6952 H6            1 RES     
   18924 H6         763.0782  -895.4933  -557.0264 H6            1 RES     
   18925 H6         763.1036  -895.1832  -558.7962 H6            1 RES     
   18926 H6         760.5804  -895.7642  -558.8222 H6            1 RES     
   18927 H6         761.0684  -894.2316  -558.0123 H6            1 RES     
   18928 H6         760.5865  -896.8315  -556.4231 H6            1 RES     
   18929 H6         761.0155  -895.1939  -555.8020 H6            1 RES     
   18930 H6         758.8784  -894.3223  -556.8395 H6            1 RES     
   18931 H6         758.4642  -896.0417  -557.2998 H6            1 RES     
   18932 H6         758.7578  -896.5939  -554.7840 H6            1 RES     
   18933 H6         758.8866  -894.8257  -554.4928 H6            1 RES     
   18934 H6         756.4533  -896.4625  -555.5086 H6            1 RES     
   18935 H6         756.7198  -895.6780  -553.9245 H6            1 RES     
   18936 H6         756.6518  -893.3944  -555.1063 H6            1 RES     
   18937 H6         755.1680  -894.3733  -554.9892 H6            1 RES     
   18938 H6         756.8836  -894.1689  -557.5059 H6            1 RES     
   18939 H6         755.4303  -895.1886  -557.3729 H6            1 RES     
   18940 H6         755.2692  -892.9885  -558.5988 H6            1 RES     
   18941 H6         755.5050  -892.1018  -557.0712 H6            1 RES     
   18942 H6         753.1493  -892.2219  -557.8973 H6            1 RES     
   18943 H6         753.1898  -894.0122  -557.9085 H6            1 RES     
   18944 H6         751.8354  -893.0917  -556.0722 H6            1 RES     
   18945 H6         753.1667  -894.0568  -555.4296 H6            1 RES     
   18946 H6         753.0819  -890.9666  -555.6414 H6            1 RES     
   18947 H6         752.8522  -891.9430  -554.1403 H6            1 RES     
   18948 H6         754.4585  -891.9133  -554.9463 H6            1 RES     
   18949 C0         767.9012  -896.1564  -560.4439 C0            1 RES     
   18950 C0         768.5172  -895.8060  -559.0672 C0            1 RES     
   18951 C0         769.9017  -896.4003  -558.7294 C0            1 RES     
   18952 C0         769.9601  -897.8873  -558.3003 C0            1 RES     
   18953 C0         768.9401  -898.2271  -557.1935 C0            1 RES     
   18954 C0         769.1969  -899.5423  -556.4437 C0            1 RES     
   18955 C0         770.2797  -899.3751  -555.3650 C0            1 RES     
   18956 C0         770.4714  -900.6627  -554.5500 C0            1 RES     
   18957 C0         771.4155  -900.4129  -553.3665 C0            1 RES     
   18958 C0         771.9269  -901.6573  -552.6088 C0            1 RES     
   18959 C0         770.9080  -902.5598  -551.8809 C0            1 RES     
   18960 C0         770.1534  -903.5376  -552.8047 C0            1 RES     
   18961 C0         769.2020  -904.5163  -552.0838 C0            1 RES     
   18962 C0         769.8273  -905.7783  -551.4386 C0            1 RES     
   18963 C0         770.7513  -905.6029  -550.2237 C0            1 RES     
   18964 C0         770.0801  -904.8618  -549.0692 C0            1 RES     
   18965 H6         767.9475  -897.2502  -560.6362 H6            1 RES     
   18966 H6         768.5691  -895.6681  -561.1886 H6            1 RES     
   18967 H6         768.6667  -894.7065  -559.0803 H6            1 RES     
   18968 H6         767.8479  -896.0318  -558.2264 H6            1 RES     
   18969 H6         770.6216  -896.2068  -559.5533 H6            1 RES     
   18970 H6         770.2594  -895.8300  -557.8429 H6            1 RES     
   18971 H6         769.7959  -898.5684  -559.1632 H6            1 RES     
   18972 H6         770.9920  -898.0559  -557.9259 H6            1 RES     
   18973 H6         768.8630  -897.4098  -556.4429 H6            1 RES     
   18974 H6         767.9701  -898.3320  -557.6974 H6            1 RES     
   18975 H6         769.4289  -900.3638  -557.1564 H6            1 RES     
   18976 H6         768.2591  -899.8055  -555.9076 H6            1 RES     
   18977 H6         771.2468  -899.0790  -555.8227 H6            1 RES     
   18978 H6         769.9519  -898.5659  -554.6734 H6            1 RES     
   18979 H6         769.4834  -900.9677  -554.1544 H6            1 RES     
   18980 H6         770.8825  -901.4493  -555.2184 H6            1 RES     
   18981 H6         772.3262  -899.9051  -553.7539 H6            1 RES     
   18982 H6         770.9195  -899.7178  -552.6525 H6            1 RES     
   18983 H6         772.5588  -902.2824  -553.2760 H6            1 RES     
   18984 H6         772.5961  -901.2450  -551.8205 H6            1 RES     
   18985 H6         770.2070  -901.9459  -551.2748 H6            1 RES     
   18986 H6         771.5115  -903.1536  -551.1829 H6            1 RES     
   18987 H6         769.5123  -902.9450  -553.4725 H6            1 RES     
   18988 H6         770.8586  -904.1154  -553.4405 H6            1 RES     
   18989 H6         768.5346  -904.9231  -552.8765 H6            1 RES     
   18990 H6         768.5488  -903.9689  -551.3717 H6            1 RES     
   18991 H6         768.9802  -906.4204  -551.1100 H6            1 RES     
   18992 H6         770.3829  -906.3418  -552.2198 H6            1 RES     
   18993 H6         771.0366  -906.6164  -549.8662 H6            1 RES     
   18994 H6         771.6966  -905.1095  -550.5087 H6            1 RES     
   18995 H6         769.1603  -905.3975  -548.7519 H6            1 RES     
   18996 H6         770.7779  -904.8115  -548.2072 H6            1 RES     
   18997 H6         769.8169  -903.8254  -549.3635 H6            1 RES     
   18998 C0         766.7418  -899.7041  -572.8173 C0            1 RES     
   18999 C1         766.4858  -898.4828  -571.9099 C1            1 RES     
   19000 C1         766.5084  -897.1837  -572.6132 C1            1 RES     
   19001 S2         767.1918  -896.0063  -571.4365 S2            1 RES     
   19002 C1         766.3435  -897.0321  -570.2150 C1            1 RES     
   19003 C1         766.2441  -898.3531  -570.6099 C1            1 RES     
   19004 C1         767.1910  -897.5835  -573.8349 C1            1 RES     
   19005 C1         767.3073  -898.9324  -574.0065 C1            1 RES     
   19006 C1         767.8978  -899.2739  -575.2365 C1            1 RES     
   19007 C1         768.1833  -898.1251  -576.0126 C1            1 RES     
   19008 S2         767.7050  -896.7349  -575.1622 S2            1 RES     
   19009 H3         766.1147  -899.1533  -569.8998 H3            1 RES     
   19010 H3         768.0914  -900.2907  -575.5549 H3            1 RES     
   19011 N4         769.5702  -899.1471  -577.7729 N4            1 RES     
   19012 C1         770.2363  -899.1537  -578.9657 C1            1 RES     
   19013 C1         770.1625  -898.0587  -579.8352 C1            1 RES     
   19014 C1         769.3926  -896.9660  -579.4565 C1            1 RES     
   19015 N4         769.2314  -895.8609  -580.2247 N4            1 RES     
   19016 S2         768.2336  -894.9297  -579.2945 S2            1 RES     
   19017 N4         767.9908  -895.8473  -577.9424 N4            1 RES     
   19018 C1         768.7196  -896.9642  -578.2045 C1            1 RES     
   19019 C1         768.8213  -898.0844  -577.3516 C1            1 RES     
   19020 H5         770.8345  -900.0125  -579.2412 H5            1 RES     
   19021 C0         765.3873  -900.3599  -573.2407 C0            1 RES     
   19022 C0         764.6120  -900.9794  -572.0737 C0            1 RES     
   19023 C0         763.2099  -901.5058  -572.3958 C0            1 RES     
   19024 C0         762.1972  -900.4577  -572.8838 C0            1 RES     
   19025 C0         762.1855  -899.1724  -572.0310 C0            1 RES     
   19026 C0         760.9832  -898.2767  -572.3530 C0            1 RES     
   19027 C0         759.7165  -898.7916  -571.6517 C0            1 RES     
   19028 C0         758.4911  -897.9504  -572.0110 C0            1 RES     
   19029 C0         757.2985  -898.3434  -571.1336 C0            1 RES     
   19030 C0         755.9213  -897.8026  -571.5672 C0            1 RES     
   19031 C0         755.7417  -896.2761  -571.6885 C0            1 RES     
   19032 C0         756.2784  -895.6903  -573.0137 C0            1 RES     
   19033 C0         756.0543  -894.1765  -573.2007 C0            1 RES     
   19034 C0         754.6576  -893.7164  -573.6835 C0            1 RES     
   19035 C0         753.4579  -893.9099  -572.7442 C0            1 RES     
   19036 C0         753.6561  -893.2440  -571.3839 C0            1 RES     
   19037 H6         764.7557  -899.5648  -573.6906 H6            1 RES     
   19038 H6         765.5589  -901.1314  -574.0228 H6            1 RES     
   19039 H6         765.1757  -901.8384  -571.7135 H6            1 RES     
   19040 H6         764.5116  -900.2504  -571.2484 H6            1 RES     
   19041 H6         763.2638  -902.3332  -573.1362 H6            1 RES     
   19042 H6         762.8171  -901.9312  -571.4451 H6            1 RES     
   19043 H6         762.4140  -900.1718  -573.9359 H6            1 RES     
   19044 H6         761.2077  -900.9595  -572.8720 H6            1 RES     
   19045 H6         762.1873  -899.3967  -570.9418 H6            1 RES     
   19046 H6         763.1155  -898.6111  -572.2648 H6            1 RES     
   19047 H6         760.8538  -898.1954  -573.4550 H6            1 RES     
   19048 H6         761.1830  -897.2584  -571.9528 H6            1 RES     
   19049 H6         759.5043  -899.8466  -571.9229 H6            1 RES     
   19050 H6         759.8936  -898.7397  -570.5537 H6            1 RES     
   19051 H6         758.7289  -896.8843  -571.8202 H6            1 RES     
   19052 H6         758.2595  -898.1161  -573.0859 H6            1 RES     
   19053 H6         757.2007  -899.4517  -571.1325 H6            1 RES     
   19054 H6         757.5160  -898.0227  -570.0901 H6            1 RES     
   19055 H6         755.5989  -898.2810  -572.5171 H6            1 RES     
   19056 H6         755.2226  -898.1518  -570.7743 H6            1 RES     
   19057 H6         756.1738  -895.7622  -570.8027 H6            1 RES     
   19058 H6         754.6565  -896.1195  -571.6649 H6            1 RES     
   19059 H6         757.3689  -895.8244  -573.0343 H6            1 RES     
   19060 H6         755.8621  -896.2336  -573.8896 H6            1 RES     
   19061 H6         756.7384  -893.8707  -574.0241 H6            1 RES     
   19062 H6         756.3827  -893.6234  -572.2956 H6            1 RES     
   19063 H6         754.7367  -892.6263  -573.8901 H6            1 RES     
   19064 H6         754.4282  -894.2190  -574.6486 H6            1 RES     
   19065 H6         752.5694  -893.4522  -573.2305 H6            1 RES     
   19066 H6         753.2147  -894.9797  -572.6247 H6            1 RES     
   19067 H6         753.8447  -892.1572  -571.5124 H6            1 RES     
   19068 H6         752.7404  -893.3775  -570.7707 H6            1 RES     
   19069 H6         754.5072  -893.7004  -570.8388 H6            1 RES     
   19070 C0         767.8229  -900.7370  -572.2926 C0            1 RES     
   19071 C0         767.7604  -901.0577  -570.7790 C0            1 RES     
   19072 C0         768.6691  -902.1874  -570.2478 C0            1 RES     
   19073 C0         768.2244  -903.6485  -570.5059 C0            1 RES     
   19074 C0         766.7556  -903.9021  -570.1073 C0            1 RES     
   19075 C0         766.3610  -905.3781  -569.9543 C0            1 RES     
   19076 C0         766.8053  -905.9433  -568.5952 C0            1 RES     
   19077 C0         766.3292  -907.3904  -568.4001 C0            1 RES     
   19078 C0         766.6205  -907.8629  -566.9697 C0            1 RES     
   19079 C0         766.4541  -909.3717  -566.6871 C0            1 RES     
   19080 C0         765.0578  -910.0112  -566.8417 C0            1 RES     
   19081 C0         764.6628  -910.3273  -568.2987 C0            1 RES     
   19082 C0         763.3127  -911.0566  -568.4670 C0            1 RES     
   19083 C0         763.2942  -912.5894  -568.2433 C0            1 RES     
   19084 C0         763.5389  -913.1295  -566.8259 C0            1 RES     
   19085 C0         762.5563  -912.5698  -565.7993 C0            1 RES     
   19086 H6         767.7415  -901.6633  -572.9015 H6            1 RES     
   19087 H6         768.8460  -900.3303  -572.4567 H6            1 RES     
   19088 H6         768.1088  -900.1374  -570.2662 H6            1 RES     
   19089 H6         766.7413  -901.2603  -570.4239 H6            1 RES     
   19090 H6         769.7172  -902.0369  -570.5844 H6            1 RES     
   19091 H6         768.6625  -902.0753  -569.1404 H6            1 RES     
   19092 H6         768.3638  -903.9360  -571.5705 H6            1 RES     
   19093 H6         768.8964  -904.2843  -569.8914 H6            1 RES     
   19094 H6         766.4898  -903.3730  -569.1656 H6            1 RES     
   19095 H6         766.1453  -903.4923  -570.9230 H6            1 RES     
   19096 H6         766.7406  -905.9785  -570.8099 H6            1 RES     
   19097 H6         765.2504  -905.4260  -569.9652 H6            1 RES     
   19098 H6         767.9100  -905.9001  -568.4947 H6            1 RES     
   19099 H6         766.3514  -905.3126  -567.7972 H6            1 RES     
   19100 H6         765.2345  -907.4156  -568.5635 H6            1 RES     
   19101 H6         766.8477  -908.0384  -569.1388 H6            1 RES     
   19102 H6         767.6846  -907.6328  -566.7413 H6            1 RES     
   19103 H6         765.9897  -907.2781  -566.2633 H6            1 RES     
   19104 H6         767.1926  -909.9581  -567.2752 H6            1 RES     
   19105 H6         766.7306  -909.4840  -565.6145 H6            1 RES     
   19106 H6         764.2871  -909.3915  -566.3339 H6            1 RES     
   19107 H6         765.1253  -910.9614  -566.2972 H6            1 RES     
   19108 H6         764.5483  -909.3733  -568.8324 H6            1 RES     
   19109 H6         765.4583  -910.9079  -568.8139 H6            1 RES     
   19110 H6         763.0410  -910.9389  -569.5400 H6            1 RES     
   19111 H6         762.5195  -910.5444  -567.8825 H6            1 RES     
   19112 H6         762.2866  -912.9441  -568.5545 H6            1 RES     
   19113 H6         764.0339  -913.0600  -568.9274 H6            1 RES     
   19114 H6         763.4150  -914.2341  -566.8584 H6            1 RES     
   19115 H6         764.5808  -912.9549  -566.5063 H6            1 RES     
   19116 H6         761.5126  -912.8006  -566.1010 H6            1 RES     
   19117 H6         762.7517  -913.0340  -564.8099 H6            1 RES     
   19118 H6         762.6734  -911.4717  -565.6967 H6            1 RES     
   19119 C0         772.0549  -899.8043  -584.4685 C0            1 RES     
   19120 C1         771.6396  -898.8994  -583.2899 C1            1 RES     
   19121 C1         772.2481  -897.5532  -583.3093 C1            1 RES     
   19122 S2         772.5000  -897.1092  -581.5838 S2            1 RES     
   19123 C1         770.9897  -898.0651  -581.3203 C1            1 RES     
   19124 C1         770.8363  -899.0793  -582.2470 C1            1 RES     
   19125 C1         773.3389  -897.7957  -584.2417 C1            1 RES     
   19126 C1         773.2580  -898.9791  -584.9168 C1            1 RES     
   19127 C1         774.2854  -899.1341  -585.8649 C1            1 RES     
   19128 C1         775.1245  -897.9952  -585.9127 C1            1 RES     
   19129 S2         774.5790  -896.8431  -584.7904 S2            1 RES     
   19130 H3         770.2302  -899.9478  -582.0480 H3            1 RES     
   19131 H3         774.4055  -900.0091  -586.4916 H3            1 RES     
   19132 N4         776.9550  -898.8860  -587.2993 N4            1 RES     
   19133 C1         778.0945  -898.7837  -588.0461 C1            1 RES     
   19134 C1         778.6602  -897.5337  -588.3253 C1            1 RES     
   19135 C1         778.0324  -896.3992  -587.8267 C1            1 RES     
   19136 N4         778.4766  -895.1380  -588.0496 N4            1 RES     
   19137 S2         777.3587  -894.2252  -587.2467 S2            1 RES     
   19138 N4         776.3256  -895.3450  -586.6080 N4            1 RES     
   19139 C1         776.8578  -896.5205  -587.0355 C1            1 RES     
   19140 C1         776.3190  -897.7980  -586.7706 C1            1 RES     
   19141 H5         778.5714  -899.6796  -588.4222 H5            1 RES     
   19142 C0         770.9696  -899.7644  -585.5930 C0            1 RES     
   19143 C0         769.6270  -900.3720  -585.1745 C0            1 RES     
   19144 C0         768.4778  -900.2303  -586.1774 C0            1 RES     
   19145 C0         768.0477  -898.7912  -586.5036 C0            1 RES     
   19146 C0         767.8802  -897.9029  -585.2537 C0            1 RES     
   19147 C0         767.1787  -896.5780  -585.5768 C0            1 RES     
   19148 C0         765.6583  -896.7768  -585.6784 C0            1 RES     
   19149 C0         764.9443  -895.4807  -586.0640 C0            1 RES     
   19150 C0         763.4270  -895.6508  -585.9409 C0            1 RES     
   19151 C0         762.5600  -894.5427  -586.5715 C0            1 RES     
   19152 C0         762.7613  -893.0932  -586.0861 C0            1 RES     
   19153 C0         763.9686  -892.3816  -586.7369 C0            1 RES     
   19154 C0         764.1607  -890.9077  -586.3276 C0            1 RES     
   19155 C0         763.2848  -889.8494  -587.0404 C0            1 RES     
   19156 C0         761.7706  -889.8588  -586.7836 C0            1 RES     
   19157 C0         761.4196  -889.7435  -585.3015 C0            1 RES     
   19158 H6         770.7985  -898.6991  -585.8565 H6            1 RES     
   19159 H6         771.3403  -900.2781  -586.5067 H6            1 RES     
   19160 H6         769.7704  -901.4425  -585.0373 H6            1 RES     
   19161 H6         769.2884  -899.9345  -584.2172 H6            1 RES     
   19162 H6         768.7169  -900.7627  -587.1234 H6            1 RES     
   19163 H6         767.6040  -900.7425  -585.7155 H6            1 RES     
   19164 H6         768.7921  -898.3081  -587.1731 H6            1 RES     
   19165 H6         767.0969  -898.8766  -587.0690 H6            1 RES     
   19166 H6         767.3173  -898.4222  -584.4474 H6            1 RES     
   19167 H6         768.8977  -897.6778  -584.8682 H6            1 RES     
   19168 H6         767.6106  -896.1345  -586.5012 H6            1 RES     
   19169 H6         767.3567  -895.8694  -584.7382 H6            1 RES     
   19170 H6         765.4009  -897.5513  -586.4304 H6            1 RES     
   19171 H6         765.2952  -897.1189  -584.6830 H6            1 RES     
   19172 H6         765.2643  -894.6821  -585.3645 H6            1 RES     
   19173 H6         765.2276  -895.2261  -587.1087 H6            1 RES     
   19174 H6         763.1269  -896.5942  -586.4486 H6            1 RES     
   19175 H6         763.1768  -895.7541  -584.8612 H6            1 RES     
   19176 H6         762.6449  -894.5679  -587.6794 H6            1 RES     
   19177 H6         761.5145  -894.8295  -586.3194 H6            1 RES     
   19178 H6         762.8079  -893.0578  -584.9762 H6            1 RES     
   19179 H6         761.8511  -892.5657  -586.3959 H6            1 RES     
   19180 H6         764.8862  -892.8921  -586.4132 H6            1 RES     
   19181 H6         763.9250  -892.4516  -587.8455 H6            1 RES     
   19182 H6         765.1998  -890.6450  -586.6288 H6            1 RES     
   19183 H6         764.1169  -890.8056  -585.2228 H6            1 RES     
   19184 H6         763.6635  -888.8546  -586.7174 H6            1 RES     
   19185 H6         763.4519  -889.9254  -588.1372 H6            1 RES     
   19186 H6         761.3312  -888.9870  -587.3150 H6            1 RES     
   19187 H6         761.2969  -890.7500  -587.2299 H6            1 RES     
   19188 H6         761.8542  -888.8147  -584.8752 H6            1 RES     
   19189 H6         760.3161  -889.7077  -585.1852 H6            1 RES     
   19190 H6         761.7991  -890.6178  -584.7345 H6            1 RES     
   19191 C0         772.5289  -901.2657  -584.0805 C0            1 RES     
   19192 C0         771.6894  -901.9717  -582.9876 C0            1 RES     
   19193 C0         771.9938  -903.4576  -582.6985 C0            1 RES     
   19194 C0         771.4519  -904.5097  -583.6977 C0            1 RES     
   19195 C0         769.9540  -904.3148  -584.0121 C0            1 RES     
   19196 C0         769.2555  -905.5195  -584.6593 C0            1 RES     
   19197 C0         768.8762  -906.5810  -583.6136 C0            1 RES     
   19198 C0         768.0936  -907.7427  -584.2435 C0            1 RES     
   19199 C0         767.5672  -908.6875  -583.1550 C0            1 RES     
   19200 C0         766.9959  -910.0425  -583.6257 C0            1 RES     
   19201 C0         765.7494  -910.0520  -584.5360 C0            1 RES     
   19202 C0         766.0462  -909.7580  -586.0208 C0            1 RES     
   19203 C0         764.8284  -909.8598  -586.9639 C0            1 RES     
   19204 C0         764.4072  -911.2727  -587.4396 C0            1 RES     
   19205 C0         763.8341  -912.2563  -586.4079 C0            1 RES     
   19206 C0         762.6106  -911.7055  -585.6781 C0            1 RES     
   19207 H6         772.5701  -901.8749  -585.0093 H6            1 RES     
   19208 H6         773.5628  -901.2317  -583.6693 H6            1 RES     
   19209 H6         771.9217  -901.4370  -582.0434 H6            1 RES     
   19210 H6         770.6073  -901.8832  -583.1521 H6            1 RES     
   19211 H6         773.0817  -903.6082  -582.5302 H6            1 RES     
   19212 H6         771.4805  -903.6823  -581.7366 H6            1 RES     
   19213 H6         772.0243  -904.5011  -584.6505 H6            1 RES     
   19214 H6         771.6099  -905.4975  -583.2153 H6            1 RES     
   19215 H6         769.3791  -904.0278  -583.1041 H6            1 RES     
   19216 H6         769.9010  -903.4900  -584.7349 H6            1 RES     
   19217 H6         769.8728  -905.9364  -585.4850 H6            1 RES     
   19218 H6         768.3002  -905.1531  -585.0941 H6            1 RES     
   19219 H6         769.7828  -906.9757  -583.1089 H6            1 RES     
   19220 H6         768.2288  -906.0932  -582.8499 H6            1 RES     
   19221 H6         767.2292  -907.3172  -584.7889 H6            1 RES     
   19222 H6         768.7647  -908.2868  -584.9420 H6            1 RES     
   19223 H6         768.4142  -908.9400  -582.4795 H6            1 RES     
   19224 H6         766.8030  -908.1486  -582.5512 H6            1 RES     
   19225 H6         767.7955  -910.6568  -584.0931 H6            1 RES     
   19226 H6         766.6981  -910.5583  -582.6852 H6            1 RES     
   19227 H6         764.9672  -909.3728  -584.1328 H6            1 RES     
   19228 H6         765.3620  -911.0762  -584.4663 H6            1 RES     
   19229 H6         766.3890  -908.7166  -586.0971 H6            1 RES     
   19230 H6         766.8608  -910.4095  -586.4046 H6            1 RES     
   19231 H6         765.1315  -909.3407  -587.9008 H6            1 RES     
   19232 H6         763.9692  -909.2898  -586.5512 H6            1 RES     
   19233 H6         763.6240  -911.1264  -588.2162 H6            1 RES     
   19234 H6         765.2762  -911.7569  -587.9365 H6            1 RES     
   19235 H6         763.5284  -913.1770  -586.9513 H6            1 RES     
   19236 H6         764.6076  -912.5766  -585.6886 H6            1 RES     
   19237 H6         761.8160  -911.4395  -586.4072 H6            1 RES     
   19238 H6         762.2145  -912.4781  -584.9861 H6            1 RES     
   19239 H6         762.8756  -910.8086  -585.0820 H6            1 RES     
   19240 C0         782.1563  -898.4023  -592.2135 C0            1 RES     
   19241 C1         781.4133  -897.7984  -591.0037 C1            1 RES     
   19242 C1         782.2057  -896.8258  -590.2233 C1            1 RES     
   19243 S2         781.6830  -897.0337  -588.5141 S2            1 RES     
   19244 C1         780.0774  -897.4041  -589.2551 C1            1 RES     
   19245 C1         780.1916  -897.9711  -590.5106 C1            1 RES     
   19246 C1         783.5385  -897.1638  -590.7003 C1            1 RES     
   19247 C1         783.5617  -897.9807  -591.7934 C1            1 RES     
   19248 C1         784.8647  -898.2136  -592.2691 C1            1 RES     
   19249 C1         785.8279  -897.4999  -591.5165 C1            1 RES     
   19250 S2         785.0483  -896.6136  -590.2953 S2            1 RES     
   19251 H3         779.4083  -898.5755  -590.9378 H3            1 RES     
   19252 H3         785.0968  -898.8457  -593.1172 H3            1 RES     
   19253 N4         787.8852  -898.5467  -592.3759 N4            1 RES     
   19254 C1         789.2381  -898.6525  -592.5344 C1            1 RES     
   19255 C1         790.0993  -897.6728  -592.0256 C1            1 RES     
   19256 C1         789.5442  -896.5884  -591.3580 C1            1 RES     
   19257 N4         790.2767  -895.5711  -590.8423 N4            1 RES     
   19258 S2         789.1130  -894.5931  -590.1964 S2            1 RES     
   19259 N4         787.7049  -895.3930  -590.5227 N4            1 RES     
   19260 C1         788.1362  -896.4996  -591.1838 C1            1 RES     
   19261 C1         787.2995  -897.5093  -591.7063 C1            1 RES     
   19262 H5         789.6520  -899.5071  -593.0539 H5            1 RES     
   19263 C0         781.7721  -897.6398  -593.5231 C0            1 RES     
   19264 C0         780.3039  -897.8095  -593.9260 C0            1 RES     
   19265 C0         779.8267  -896.9695  -595.1149 C0            1 RES     
   19266 C0         779.8943  -895.4455  -594.9277 C0            1 RES     
   19267 C0         779.3263  -894.9677  -593.5755 C0            1 RES     
   19268 C0         779.1378  -893.4464  -593.5336 C0            1 RES     
   19269 C0         777.8456  -893.0370  -594.2574 C0            1 RES     
   19270 C0         777.6707  -891.5181  -594.2840 C0            1 RES     
   19271 C0         776.2792  -891.1506  -594.8085 C0            1 RES     
   19272 C0         776.0538  -889.6698  -595.1739 C0            1 RES     
   19273 C0         776.2763  -888.6059  -594.0803 C0            1 RES     
   19274 C0         777.7599  -888.2266  -593.8746 C0            1 RES     
   19275 C0         778.0157  -887.1155  -592.8369 C0            1 RES     
   19276 C0         777.8124  -885.6512  -593.2948 C0            1 RES     
   19277 C0         776.3909  -885.1823  -593.6389 C0            1 RES     
   19278 C0         775.4041  -885.3887  -592.4914 C0            1 RES     
   19279 H6         781.9590  -896.5589  -593.3491 H6            1 RES     
   19280 H6         782.4265  -897.9598  -594.3631 H6            1 RES     
   19281 H6         780.1527  -898.8477  -594.2169 H6            1 RES     
   19282 H6         779.6414  -897.5813  -593.0708 H6            1 RES     
   19283 H6         780.3801  -897.2485  -596.0376 H6            1 RES     
   19284 H6         778.7578  -897.2389  -595.2701 H6            1 RES     
   19285 H6         780.9460  -895.0934  -595.0039 H6            1 RES     
   19286 H6         779.3337  -895.0073  -595.7790 H6            1 RES     
   19287 H6         778.3576  -895.4583  -593.3354 H6            1 RES     
   19288 H6         780.0573  -895.2538  -592.7892 H6            1 RES     
   19289 H6         780.0360  -892.9402  -593.9517 H6            1 RES     
   19290 H6         779.0273  -893.1324  -592.4724 H6            1 RES     
   19291 H6         777.8339  -893.4056  -595.3040 H6            1 RES     
   19292 H6         776.9920  -893.4996  -593.7122 H6            1 RES     
   19293 H6         777.7657  -891.1355  -593.2476 H6            1 RES     
   19294 H6         778.4623  -891.0890  -594.9365 H6            1 RES     
   19295 H6         776.0813  -891.7248  -595.7406 H6            1 RES     
   19296 H6         775.5286  -891.4684  -594.0504 H6            1 RES     
   19297 H6         776.6513  -889.3968  -596.0704 H6            1 RES     
   19298 H6         774.9820  -889.6156  -595.4692 H6            1 RES     
   19299 H6         775.7925  -888.9185  -593.1297 H6            1 RES     
   19300 H6         775.7475  -887.7166  -594.4437 H6            1 RES     
   19301 H6         778.2917  -889.1078  -593.4896 H6            1 RES     
   19302 H6         778.2390  -887.9461  -594.8377 H6            1 RES     
   19303 H6         779.1008  -887.1742  -592.5948 H6            1 RES     
   19304 H6         777.4698  -887.3346  -591.8951 H6            1 RES     
   19305 H6         778.1759  -885.0059  -592.4649 H6            1 RES     
   19306 H6         778.4650  -885.4564  -594.1739 H6            1 RES     
   19307 H6         776.4383  -884.0955  -593.8670 H6            1 RES     
   19308 H6         776.0250  -885.6651  -594.5614 H6            1 RES     
   19309 H6         775.7533  -884.8525  -591.5837 H6            1 RES     
   19310 H6         774.4104  -884.9884  -592.7826 H6            1 RES     
   19311 H6         775.2878  -886.4663  -592.2568 H6            1 RES     
   19312 C0         782.0923  -899.9803  -592.3430 C0            1 RES     
   19313 C0         780.7133  -900.6191  -592.0463 C0            1 RES     
   19314 C0         780.5465  -902.1277  -592.3300 C0            1 RES     
   19315 C0         780.3554  -902.5649  -593.8035 C0            1 RES     
   19316 C0         779.2607  -901.7534  -594.5272 C0            1 RES     
   19317 C0         778.7374  -902.3718  -595.8316 C0            1 RES     
   19318 C0         777.7060  -903.4787  -595.5577 C0            1 RES     
   19319 C0         777.1107  -904.0336  -596.8602 C0            1 RES     
   19320 C0         775.9556  -904.9963  -596.5548 C0            1 RES     
   19321 C0         775.4275  -905.8460  -597.7309 C0            1 RES     
   19322 C0         774.7934  -905.1313  -598.9432 C0            1 RES     
   19323 C0         775.8146  -904.5429  -599.9380 C0            1 RES     
   19324 C0         775.2027  -903.9105  -601.2063 C0            1 RES     
   19325 C0         774.7944  -904.8646  -602.3565 C0            1 RES     
   19326 C0         773.6188  -905.8278  -602.1316 C0            1 RES     
   19327 C0         772.3292  -905.1095  -601.7392 C0            1 RES     
   19328 H6         782.4530  -900.2599  -593.3565 H6            1 RES     
   19329 H6         782.7878  -900.4487  -591.6109 H6            1 RES     
   19330 H6         780.5650  -900.5097  -590.9521 H6            1 RES     
   19331 H6         779.8824  -900.0974  -592.5395 H6            1 RES     
   19332 H6         781.3685  -902.7074  -591.8579 H6            1 RES     
   19333 H6         779.6033  -902.4219  -591.8172 H6            1 RES     
   19334 H6         781.3028  -902.4858  -594.3794 H6            1 RES     
   19335 H6         780.0678  -903.6371  -593.7681 H6            1 RES     
   19336 H6         778.3901  -901.5573  -593.8631 H6            1 RES     
   19337 H6         779.7215  -900.7927  -594.7927 H6            1 RES     
   19338 H6         779.5797  -902.7223  -596.4675 H6            1 RES     
   19339 H6         778.1984  -901.5715  -596.3837 H6            1 RES     
   19340 H6         778.1643  -904.3069  -594.9776 H6            1 RES     
   19341 H6         776.8813  -903.0364  -594.9538 H6            1 RES     
   19342 H6         776.7140  -903.1817  -597.4455 H6            1 RES     
   19343 H6         777.9135  -904.5535  -597.4255 H6            1 RES     
   19344 H6         776.3089  -905.7274  -595.7944 H6            1 RES     
   19345 H6         775.1173  -904.4192  -596.1040 H6            1 RES     
   19346 H6         776.2162  -906.5428  -598.0880 H6            1 RES     
   19347 H6         774.6224  -906.4697  -597.2814 H6            1 RES     
   19348 H6         774.0628  -904.3646  -598.6051 H6            1 RES     
   19349 H6         774.2289  -905.9149  -599.4638 H6            1 RES     
   19350 H6         776.3474  -903.7257  -599.4317 H6            1 RES     
   19351 H6         776.5690  -905.3027  -600.2363 H6            1 RES     
   19352 H6         776.0113  -903.2869  -601.6495 H6            1 RES     
   19353 H6         774.3805  -903.2150  -600.9351 H6            1 RES     
   19354 H6         774.5234  -904.2208  -603.2226 H6            1 RES     
   19355 H6         775.6819  -905.4632  -602.6572 H6            1 RES     
   19356 H6         773.4376  -906.3695  -603.0857 H6            1 RES     
   19357 H6         773.8750  -906.6048  -601.3908 H6            1 RES     
   19358 H6         772.0490  -904.3699  -602.5190 H6            1 RES     
   19359 H6         771.5088  -905.8510  -601.6408 H6            1 RES     
   19360 H6         772.4457  -904.5896  -600.7665 H6            1 RES     
   19361 C0         794.7835  -898.5715  -594.3379 C0            1 RES     
   19362 C1         793.6863  -898.1231  -593.3502 C1            1 RES     
   19363 C1         794.1812  -897.7832  -592.0003 C1            1 RES     
   19364 S2         792.8759  -898.2791  -590.8654 S2            1 RES     
   19365 C1         791.7829  -897.8020  -592.2225 C1            1 RES     
   19366 C1         792.3707  -897.9748  -593.4617 C1            1 RES     
   19367 C1         795.4850  -898.4278  -592.0528 C1            1 RES     
   19368 C1         795.8684  -898.8359  -593.2974 C1            1 RES     
   19369 C1         797.1665  -899.3772  -593.3149 C1            1 RES     
   19370 C1         797.7706  -899.3202  -592.0361 C1            1 RES     
   19371 S2         796.6916  -898.6123  -590.9319 S2            1 RES     
   19372 H3         791.7863  -898.0969  -594.3589 H3            1 RES     
   19373 H3         797.6477  -899.7706  -594.2017 H3            1 RES     
   19374 N4         799.7397  -900.7427  -592.4431 N4            1 RES     
   19375 C1         800.9536  -901.2834  -592.1257 C1            1 RES     
   19376 C1         801.6387  -900.8824  -590.9723 C1            1 RES     
   19377 C1         801.0551  -899.9184  -590.1598 C1            1 RES     
   19378 N4         801.6339  -899.4392  -589.0316 N4            1 RES     
   19379 S2         800.5189  -898.3408  -588.5046 S2            1 RES     
   19380 N4         799.3131  -898.4372  -589.6298 N4            1 RES     
   19381 C1         799.7832  -899.3774  -590.4915 C1            1 RES     
   19382 C1         799.1199  -899.8098  -591.6601 C1            1 RES     
   19383 H5         801.3900  -902.0364  -592.7691 H5            1 RES     
   19384 C0         795.2290  -897.3723  -595.2364 C0            1 RES     
   19385 C0         794.1311  -896.8676  -596.1781 C0            1 RES     
   19386 C0         794.4543  -895.6015  -596.9776 C0            1 RES     
   19387 C0         794.7194  -894.3352  -596.1477 C0            1 RES     
   19388 C0         793.6794  -894.1040  -595.0322 C0            1 RES     
   19389 C0         793.7941  -892.7039  -594.4172 C0            1 RES     
   19390 C0         793.1131  -891.6575  -595.3131 C0            1 RES     
   19391 C0         793.2717  -890.2443  -594.7508 C0            1 RES     
   19392 C0         792.4022  -889.2573  -595.5358 C0            1 RES     
   19393 C0         792.6721  -887.7596  -595.2886 C0            1 RES     
   19394 C0         792.5468  -887.2232  -593.8486 C0            1 RES     
   19395 C0         793.7931  -887.4903  -592.9750 C0            1 RES     
   19396 C0         793.7322  -886.9079  -591.5489 C0            1 RES     
   19397 C0         794.0621  -885.4055  -591.3772 C0            1 RES     
   19398 C0         793.1004  -884.3712  -591.9807 C0            1 RES     
   19399 C0         791.6665  -884.5310  -591.4793 C0            1 RES     
   19400 H6         795.5163  -896.5371  -594.5630 H6            1 RES     
   19401 H6         796.1288  -897.6466  -595.8293 H6            1 RES     
   19402 H6         793.9386  -897.6437  -596.9170 H6            1 RES     
   19403 H6         793.1992  -896.6760  -595.6148 H6            1 RES     
   19404 H6         795.3151  -895.7783  -597.6582 H6            1 RES     
   19405 H6         793.5606  -895.4034  -597.6111 H6            1 RES     
   19406 H6         795.7251  -894.3858  -595.6768 H6            1 RES     
   19407 H6         794.7316  -893.4930  -596.8698 H6            1 RES     
   19408 H6         792.6395  -894.2544  -595.3964 H6            1 RES     
   19409 H6         793.8739  -894.8551  -594.2369 H6            1 RES     
   19410 H6         794.8618  -892.4617  -594.2194 H6            1 RES     
   19411 H6         793.2532  -892.6986  -593.4454 H6            1 RES     
   19412 H6         793.5317  -891.6707  -596.3407 H6            1 RES     
   19413 H6         792.0313  -891.9149  -595.3708 H6            1 RES     
   19414 H6         792.9321  -890.2462  -593.6953 H6            1 RES     
   19415 H6         794.3451  -889.9622  -594.8188 H6            1 RES     
   19416 H6         792.5665  -889.4178  -596.6244 H6            1 RES     
   19417 H6         791.3350  -889.4871  -595.3181 H6            1 RES     
   19418 H6         793.6656  -887.4727  -595.6960 H6            1 RES     
   19419 H6         791.9058  -887.2335  -595.9010 H6            1 RES     
   19420 H6         791.6172  -887.6025  -593.3719 H6            1 RES     
   19421 H6         792.4408  -886.1377  -593.9628 H6            1 RES     
   19422 H6         793.8930  -888.5761  -592.8384 H6            1 RES     
   19423 H6         794.7184  -887.1340  -593.4775 H6            1 RES     
   19424 H6         794.5345  -887.4271  -590.9776 H6            1 RES     
   19425 H6         792.7718  -887.1794  -591.0622 H6            1 RES     
   19426 H6         794.1023  -885.2127  -590.2825 H6            1 RES     
   19427 H6         795.0793  -885.2130  -591.7834 H6            1 RES     
   19428 H6         793.4616  -883.3615  -591.6884 H6            1 RES     
   19429 H6         793.1341  -884.3925  -593.0836 H6            1 RES     
   19430 H6         791.6360  -884.4521  -590.3720 H6            1 RES     
   19431 H6         791.0325  -883.7290  -591.9121 H6            1 RES     
   19432 H6         791.2450  -885.5094  -591.7874 H6            1 RES     
   19433 C0         794.4835  -899.9037  -595.1417 C0            1 RES     
   19434 C0         793.0362  -900.0519  -595.6719 C0            1 RES     
   19435 C0         792.7353  -901.2399  -596.6113 C0            1 RES     
   19436 C0         793.1910  -901.1225  -598.0869 C0            1 RES     
   19437 C0         792.7574  -899.7930  -598.7390 C0            1 RES     
   19438 C0         792.8125  -899.7642  -600.2733 C0            1 RES     
   19439 C0         791.5827  -900.4459  -600.8953 C0            1 RES     
   19440 C0         791.5875  -900.3352  -602.4272 C0            1 RES     
   19441 C0         790.2648  -900.8537  -603.0067 C0            1 RES     
   19442 C0         790.2095  -901.0651  -604.5352 C0            1 RES     
   19443 C0         790.3850  -899.8454  -605.4649 C0            1 RES     
   19444 C0         791.8498  -899.4057  -605.6644 C0            1 RES     
   19445 C0         792.0552  -898.2504  -606.6673 C0            1 RES     
   19446 C0         792.0697  -898.6053  -608.1752 C0            1 RES     
   19447 C0         790.7678  -899.0931  -608.8292 C0            1 RES     
   19448 C0         789.6155  -898.1035  -608.6686 C0            1 RES     
   19449 H6         795.2225  -899.9840  -595.9680 H6            1 RES     
   19450 H6         794.6380  -900.7869  -594.4819 H6            1 RES     
   19451 H6         792.4073  -900.2232  -594.7739 H6            1 RES     
   19452 H6         792.6619  -899.1426  -596.1608 H6            1 RES     
   19453 H6         793.1008  -902.1910  -596.1680 H6            1 RES     
   19454 H6         791.6251  -901.3064  -596.6567 H6            1 RES     
   19455 H6         794.2932  -901.2289  -598.1839 H6            1 RES     
   19456 H6         792.7191  -901.9748  -598.6201 H6            1 RES     
   19457 H6         791.7325  -899.4975  -598.4236 H6            1 RES     
   19458 H6         793.4660  -899.0346  -598.3806 H6            1 RES     
   19459 H6         793.7697  -900.1940  -600.6416 H6            1 RES     
   19460 H6         792.7706  -898.6980  -600.5854 H6            1 RES     
   19461 H6         791.5366  -901.5155  -600.6014 H6            1 RES     
   19462 H6         790.6737  -899.9319  -600.5078 H6            1 RES     
   19463 H6         791.6934  -899.2656  -602.6927 H6            1 RES     
   19464 H6         792.4442  -900.9211  -602.8238 H6            1 RES     
   19465 H6         790.0616  -901.8522  -602.5605 H6            1 RES     
   19466 H6         789.4437  -900.1706  -602.6934 H6            1 RES     
   19467 H6         790.9200  -901.8633  -604.8402 H6            1 RES     
   19468 H6         789.1836  -901.4544  -604.7232 H6            1 RES     
   19469 H6         789.7469  -899.0011  -605.1246 H6            1 RES     
   19470 H6         789.9979  -900.1782  -606.4361 H6            1 RES     
   19471 H6         792.2231  -899.0276  -604.7022 H6            1 RES     
   19472 H6         792.4906  -900.2643  -605.9601 H6            1 RES     
   19473 H6         793.0810  -897.8644  -606.4729 H6            1 RES     
   19474 H6         791.3567  -897.4158  -606.4462 H6            1 RES     
   19475 H6         792.3769  -897.6829  -608.7161 H6            1 RES     
   19476 H6         792.8571  -899.3695  -608.3556 H6            1 RES     
   19477 H6         790.9633  -899.2245  -609.9159 H6            1 RES     
   19478 H6         790.4818  -900.0910  -608.4541 H6            1 RES     
   19479 H6         789.8923  -897.1183  -609.1005 H6            1 RES     
   19480 H6         788.7215  -898.4878  -609.2030 H6            1 RES     
   19481 H6         789.3515  -897.9732  -607.5993 H6            1 RES     
   19482 C0         806.5811  -902.7054  -591.5597 C0            1 RES     
   19483 C1         805.2564  -902.1996  -590.9515 C1            1 RES     
   19484 C1         805.1011  -902.4775  -589.5088 C1            1 RES     
   19485 S2         803.3440  -902.7730  -589.2576 S2            1 RES     
   19486 C1         803.1496  -901.5531  -590.5760 C1            1 RES     
   19487 C1         804.2118  -901.5554  -591.4606 C1            1 RES     
   19488 C1         806.1173  -903.5073  -589.3515 C1            1 RES     
   19489 C1         806.9613  -903.6413  -590.4156 C1            1 RES     
   19490 C1         807.9761  -904.5881  -590.1874 C1            1 RES     
   19491 C1         807.8932  -905.1348  -588.8843 C1            1 RES     
   19492 S2         806.5789  -904.4408  -588.0623 S2            1 RES     
   19493 H3         804.1165  -901.1859  -592.4685 H3            1 RES     
   19494 H3         808.7357  -904.8502  -590.9134 H3            1 RES     
   19495 N4         809.4974  -906.9902  -589.1094 N4            1 RES     
   19496 C1         810.2800  -908.0043  -588.6345 C1            1 RES     
   19497 C1         810.3934  -908.2398  -587.2590 C1            1 RES     
   19498 C1         809.6928  -907.4146  -586.3883 C1            1 RES     
   19499 N4         809.7424  -907.5348  -585.0390 N4            1 RES     
   19500 S2         808.7492  -906.3128  -584.5411 S2            1 RES     
   19501 N4         808.2357  -905.6265  -585.9534 N4            1 RES     
   19502 C1         808.8674  -906.3747  -586.8961 C1            1 RES     
   19503 C1         808.7737  -906.1705  -588.2896 C1            1 RES     
   19504 H5         810.8149  -908.6393  -589.3290 H5            1 RES     
   19505 C0         807.6256  -901.5444  -591.6289 C0            1 RES     
   19506 C0         807.2338  -900.4205  -592.5935 C0            1 RES     
   19507 C0         808.1392  -899.1849  -592.5969 C0            1 RES     
   19508 C0         808.2160  -898.4077  -591.2732 C0            1 RES     
   19509 C0         806.8370  -898.1522  -590.6310 C0            1 RES     
   19510 C0         806.9137  -897.1386  -589.4828 C0            1 RES     
   19511 C0         806.9624  -895.7019  -590.0262 C0            1 RES     
   19512 C0         807.1046  -894.6772  -588.9001 C0            1 RES     
   19513 C0         806.9273  -893.2570  -589.4458 C0            1 RES     
   19514 C0         807.3318  -892.1055  -588.5037 C0            1 RES     
   19515 C0         806.6405  -892.0100  -587.1289 C0            1 RES     
   19516 C0         807.2382  -892.9581  -586.0652 C0            1 RES     
   19517 C0         806.6176  -892.8413  -584.6588 C0            1 RES     
   19518 C0         807.1105  -891.6854  -583.7553 C0            1 RES     
   19519 C0         806.7767  -890.2431  -584.1643 C0            1 RES     
   19520 C0         805.2777  -890.0084  -584.3409 C0            1 RES     
   19521 H6         807.7123  -901.1098  -590.6105 H6            1 RES     
   19522 H6         808.6263  -901.9405  -591.9082 H6            1 RES     
   19523 H6         807.2711  -900.8182  -593.6063 H6            1 RES     
   19524 H6         806.2036  -900.0769  -592.3857 H6            1 RES     
   19525 H6         809.1675  -899.4549  -592.9215 H6            1 RES     
   19526 H6         807.7152  -898.4973  -593.3628 H6            1 RES     
   19527 H6         808.8424  -898.9581  -590.5380 H6            1 RES     
   19528 H6         808.7356  -897.4556  -591.5069 H6            1 RES     
   19529 H6         806.0912  -897.7981  -591.3760 H6            1 RES     
   19530 H6         806.4771  -899.1207  -590.2223 H6            1 RES     
   19531 H6         807.7808  -897.3726  -588.8261 H6            1 RES     
   19532 H6         805.9869  -897.2225  -588.8738 H6            1 RES     
   19533 H6         807.8097  -895.5639  -590.7294 H6            1 RES     
   19534 H6         806.0134  -895.5175  -590.5786 H6            1 RES     
   19535 H6         806.3087  -894.8657  -588.1514 H6            1 RES     
   19536 H6         808.1113  -894.8000  -588.4442 H6            1 RES     
   19537 H6         807.5573  -893.1383  -590.3552 H6            1 RES     
   19538 H6         805.8644  -893.1345  -589.7532 H6            1 RES     
   19539 H6         808.4333  -892.0949  -588.3558 H6            1 RES     
   19540 H6         807.0707  -891.1809  -589.0656 H6            1 RES     
   19541 H6         805.5425  -892.1460  -587.2356 H6            1 RES     
   19542 H6         806.8155  -890.9789  -586.7989 H6            1 RES     
   19543 H6         807.0470  -893.9937  -586.3790 H6            1 RES     
   19544 H6         808.3403  -892.8333  -585.9913 H6            1 RES     
   19545 H6         806.9305  -893.7609  -584.1149 H6            1 RES     
   19546 H6         805.5095  -892.8738  -584.7224 H6            1 RES     
   19547 H6         806.6591  -891.8521  -582.7525 H6            1 RES     
   19548 H6         808.2133  -891.7671  -583.6380 H6            1 RES     
   19549 H6         807.1428  -889.5692  -583.3598 H6            1 RES     
   19550 H6         807.3287  -889.9495  -585.0737 H6            1 RES     
   19551 H6         804.7376  -890.2536  -583.4021 H6            1 RES     
   19552 H6         805.0978  -888.9412  -584.5883 H6            1 RES     
   19553 H6         804.8736  -890.6280  -585.1672 H6            1 RES     
   19554 C0         806.4490  -903.5359  -592.9028 C0            1 RES     
   19555 C0         805.4342  -902.9822  -593.9330 C0            1 RES     
   19556 C0         805.3943  -903.6451  -595.3270 C0            1 RES     
   19557 C0         806.5129  -903.2733  -596.3317 C0            1 RES     
   19558 C0         806.7121  -901.7489  -596.4622 C0            1 RES     
   19559 C0         807.4984  -901.2918  -597.6994 C0            1 RES     
   19560 C0         806.6099  -901.2618  -598.9539 C0            1 RES     
   19561 C0         807.3679  -900.7148  -600.1725 C0            1 RES     
   19562 C0         806.4112  -900.5193  -601.3560 C0            1 RES     
   19563 C0         807.0534  -900.2357  -602.7312 C0            1 RES     
   19564 C0         807.8856  -898.9489  -602.9160 C0            1 RES     
   19565 C0         809.3212  -899.0366  -602.3589 C0            1 RES     
   19566 C0         810.2015  -897.7959  -602.6210 C0            1 RES     
   19567 C0         810.8657  -897.6708  -604.0149 C0            1 RES     
   19568 C0         809.9684  -897.4338  -605.2393 C0            1 RES     
   19569 C0         809.0973  -896.1863  -605.1047 C0            1 RES     
   19570 H6         807.4614  -903.6333  -593.3511 H6            1 RES     
   19571 H6         806.0940  -904.5665  -592.6773 H6            1 RES     
   19572 H6         804.4329  -903.1683  -593.4925 H6            1 RES     
   19573 H6         805.5243  -901.8986  -594.0861 H6            1 RES     
   19574 H6         805.3103  -904.7490  -595.2326 H6            1 RES     
   19575 H6         804.4522  -903.2852  -595.7981 H6            1 RES     
   19576 H6         807.4826  -903.7411  -596.0551 H6            1 RES     
   19577 H6         806.1977  -903.6969  -597.3087 H6            1 RES     
   19578 H6         805.7410  -901.2065  -596.4492 H6            1 RES     
   19579 H6         807.2953  -901.4432  -595.5835 H6            1 RES     
   19580 H6         808.4107  -901.9124  -597.8383 H6            1 RES     
   19581 H6         807.8193  -900.2430  -597.5181 H6            1 RES     
   19582 H6         806.2217  -902.2762  -599.1838 H6            1 RES     
   19583 H6         805.7462  -900.5901  -598.7456 H6            1 RES     
   19584 H6         807.7938  -899.7306  -599.8972 H6            1 RES     
   19585 H6         808.1772  -901.4282  -600.4380 H6            1 RES     
   19586 H6         805.8294  -901.4583  -601.4870 H6            1 RES     
   19587 H6         805.6911  -899.7084  -601.1050 H6            1 RES     
   19588 H6         807.6524  -901.1104  -603.0649 H6            1 RES     
   19589 H6         806.1889  -900.1497  -603.4273 H6            1 RES     
   19590 H6         807.3408  -898.0705  -602.5071 H6            1 RES     
   19591 H6         807.9536  -898.8156  -604.0030 H6            1 RES     
   19592 H6         809.2545  -899.1222  -601.2652 H6            1 RES     
   19593 H6         809.8442  -899.9418  -602.7361 H6            1 RES     
   19594 H6         811.0622  -897.8867  -601.9210 H6            1 RES     
   19595 H6         809.6600  -896.8689  -602.3368 H6            1 RES     
   19596 H6         811.5670  -896.8090  -603.9568 H6            1 RES     
   19597 H6         811.4775  -898.5801  -604.2029 H6            1 RES     
   19598 H6         810.6298  -897.3012  -606.1233 H6            1 RES     
   19599 H6         809.3499  -898.3211  -605.4591 H6            1 RES     
   19600 H6         809.7327  -895.2901  -604.9407 H6            1 RES     
   19601 H6         808.5123  -896.0421  -606.0371 H6            1 RES     
   19602 H6         808.3854  -896.2897  -604.2606 H6            1 RES     
   19603 C0         814.5524  -911.4813  -586.7192 C0            1 RES     
   19604 C1         813.2256  -910.7300  -586.4835 C1            1 RES     
   19605 C1         812.3487  -911.3435  -585.4649 C1            1 RES     
   19606 S2         810.6661  -911.0370  -586.0244 S2            1 RES     
   19607 C1         811.3674  -909.5005  -586.6658 C1            1 RES     
   19608 C1         812.6997  -909.6298  -587.0112 C1            1 RES     
   19609 C1         812.9433  -912.6703  -585.4033 C1            1 RES     
   19610 C1         814.1489  -912.7835  -586.0330 C1            1 RES     
   19611 C1         814.7246  -914.0574  -585.8777 C1            1 RES     
   19612 C1         813.9242  -914.8936  -585.0629 C1            1 RES     
   19613 S2         812.5407  -914.0428  -584.5663 S2            1 RES     
   19614 H3         813.1718  -908.9720  -587.7222 H3            1 RES     
   19615 H3         815.6712  -914.3524  -586.3131 H3            1 RES     
   19616 N4         815.0446  -917.0517  -585.4555 N4            1 RES     
   19617 C1         815.2904  -918.3729  -585.2096 C1            1 RES     
   19618 C1         814.6841  -919.0272  -584.1304 C1            1 RES     
   19619 C1         813.8284  -918.2990  -583.3135 C1            1 RES     
   19620 N4         813.2025  -918.8205  -582.2301 N4            1 RES     
   19621 S2         812.3516  -917.5252  -581.6592 S2            1 RES     
   19622 N4         812.7206  -916.3158  -582.7224 N4            1 RES     
   19623 C1         813.5667  -916.9297  -583.5913 C1            1 RES     
   19624 C1         814.1925  -916.3049  -584.6915 C1            1 RES     
   19625 H5         815.9570  -918.9245  -585.8600 H5            1 RES     
   19626 C0         815.7061  -910.8168  -585.8998 C0            1 RES     
   19627 C0         816.0504  -909.3972  -586.3615 C0            1 RES     
   19628 C0         817.0680  -908.6355  -585.5067 C0            1 RES     
   19629 C0         816.6522  -908.3668  -584.0516 C0            1 RES     
   19630 C0         815.2139  -907.8267  -583.9144 C0            1 RES     
   19631 C0         814.9279  -907.2975  -582.5038 C0            1 RES     
   19632 C0         815.5091  -905.8865  -582.3227 C0            1 RES     
   19633 C0         815.2919  -905.3649  -580.9018 C0            1 RES     
   19634 C0         815.6774  -903.8851  -580.8121 C0            1 RES     
   19635 C0         815.7976  -903.2932  -579.3935 C0            1 RES     
   19636 C0         814.5668  -903.3612  -578.4674 C0            1 RES     
   19637 C0         814.3857  -904.7299  -577.7737 C0            1 RES     
   19638 C0         813.2045  -904.8143  -576.7865 C0            1 RES     
   19639 C0         813.4197  -904.2393  -575.3658 C0            1 RES     
   19640 C0         813.6101  -902.7231  -575.2106 C0            1 RES     
   19641 C0         812.4564  -901.9167  -575.8037 C0            1 RES     
   19642 H6         815.3780  -910.7645  -584.8401 H6            1 RES     
   19643 H6         816.6196  -911.4498  -585.9348 H6            1 RES     
   19644 H6         816.4892  -909.4639  -587.3557 H6            1 RES     
   19645 H6         815.1356  -908.7788  -586.4189 H6            1 RES     
   19646 H6         818.0513  -909.1538  -585.5152 H6            1 RES     
   19647 H6         817.2049  -907.6478  -586.0018 H6            1 RES     
   19648 H6         816.7301  -909.2980  -583.4495 H6            1 RES     
   19649 H6         817.3943  -907.6468  -583.6492 H6            1 RES     
   19650 H6         815.0002  -907.0224  -584.6520 H6            1 RES     
   19651 H6         814.5217  -908.6710  -584.1209 H6            1 RES     
   19652 H6         815.3111  -908.0141  -581.7439 H6            1 RES     
   19653 H6         813.8266  -907.2126  -582.3740 H6            1 RES     
   19654 H6         816.5978  -905.8669  -582.5365 H6            1 RES     
   19655 H6         814.9963  -905.2145  -583.0474 H6            1 RES     
   19656 H6         814.2156  -905.4612  -580.6531 H6            1 RES     
   19657 H6         815.9123  -905.9751  -580.2095 H6            1 RES     
   19658 H6         816.6749  -903.7425  -581.2840 H6            1 RES     
   19659 H6         814.9379  -903.2984  -581.4021 H6            1 RES     
   19660 H6         816.6723  -903.7295  -578.8647 H6            1 RES     
   19661 H6         816.0226  -902.2158  -579.5593 H6            1 RES     
   19662 H6         813.6510  -903.0490  -579.0144 H6            1 RES     
   19663 H6         814.7597  -902.6116  -577.6906 H6            1 RES     
   19664 H6         814.1704  -905.4824  -578.5449 H6            1 RES     
   19665 H6         815.3185  -905.0438  -577.2570 H6            1 RES     
   19666 H6         813.0334  -905.9009  -576.6146 H6            1 RES     
   19667 H6         812.2796  -904.4197  -577.2573 H6            1 RES     
   19668 H6         812.5211  -904.5169  -574.7718 H6            1 RES     
   19669 H6         814.2922  -904.7486  -574.9011 H6            1 RES     
   19670 H6         813.6702  -902.4985  -574.1237 H6            1 RES     
   19671 H6         814.5748  -902.3977  -575.6364 H6            1 RES     
   19672 H6         811.4972  -902.2124  -575.3285 H6            1 RES     
   19673 H6         812.6283  -900.8356  -575.6187 H6            1 RES     
   19674 H6         812.3847  -902.0731  -576.8992 H6            1 RES     
   19675 C0         814.9198  -911.7711  -588.2331 C0            1 RES     
   19676 C0         814.6509  -910.6084  -589.2197 C0            1 RES     
   19677 C0         815.1542  -910.7689  -590.6706 C0            1 RES     
   19678 C0         816.6649  -910.5531  -590.9351 C0            1 RES     
   19679 C0         817.1947  -909.2410  -590.3200 C0            1 RES     
   19680 C0         818.5486  -908.7601  -590.8618 C0            1 RES     
   19681 C0         818.3932  -908.0400  -592.2113 C0            1 RES     
   19682 C0         819.7315  -907.4748  -592.7097 C0            1 RES     
   19683 C0         819.5160  -906.6044  -593.9548 C0            1 RES     
   19684 C0         820.7787  -906.1836  -594.7374 C0            1 RES     
   19685 C0         821.8303  -905.2964  -594.0376 C0            1 RES     
   19686 C0         822.7764  -906.0620  -593.0900 C0            1 RES     
   19687 C0         823.8971  -905.2104  -592.4563 C0            1 RES     
   19688 C0         825.1568  -904.9320  -593.3140 C0            1 RES     
   19689 C0         825.0198  -904.0346  -594.5535 C0            1 RES     
   19690 C0         824.4522  -902.6545  -594.2277 C0            1 RES     
   19691 H6         815.9822  -912.0948  -588.2761 H6            1 RES     
   19692 H6         814.3073  -912.6182  -588.6158 H6            1 RES     
   19693 H6         813.5465  -910.5369  -589.3000 H6            1 RES     
   19694 H6         815.0122  -909.6391  -588.8511 H6            1 RES     
   19695 H6         814.8222  -911.7410  -591.0942 H6            1 RES     
   19696 H6         814.6426  -909.9684  -591.2507 H6            1 RES     
   19697 H6         817.2721  -911.4017  -590.5520 H6            1 RES     
   19698 H6         816.7796  -910.5245  -592.0394 H6            1 RES     
   19699 H6         816.4623  -908.4113  -590.4322 H6            1 RES     
   19700 H6         817.3335  -909.4426  -589.2496 H6            1 RES     
   19701 H6         819.2755  -909.6004  -590.9086 H6            1 RES     
   19702 H6         818.9409  -908.0043  -590.1471 H6            1 RES     
   19703 H6         817.9732  -908.7264  -592.9761 H6            1 RES     
   19704 H6         817.6846  -907.1927  -592.0676 H6            1 RES     
   19705 H6         820.1561  -906.8421  -591.9066 H6            1 RES     
   19706 H6         820.4127  -908.3222  -592.9385 H6            1 RES     
   19707 H6         818.8975  -907.1828  -594.6762 H6            1 RES     
   19708 H6         818.9371  -905.6993  -593.6639 H6            1 RES     
   19709 H6         821.2809  -907.0765  -595.1681 H6            1 RES     
   19710 H6         820.3878  -905.5870  -595.5922 H6            1 RES     
   19711 H6         821.3391  -904.4421  -593.5232 H6            1 RES     
   19712 H6         822.4341  -904.8835  -594.8553 H6            1 RES     
   19713 H6         822.1797  -906.4352  -592.2458 H6            1 RES     
   19714 H6         823.2285  -906.9414  -593.5976 H6            1 RES     
   19715 H6         824.2820  -905.8109  -591.6017 H6            1 RES     
   19716 H6         823.4779  -904.2777  -592.0232 H6            1 RES     
   19717 H6         825.8974  -904.4440  -592.6422 H6            1 RES     
   19718 H6         825.5937  -905.9031  -593.6342 H6            1 RES     
   19719 H6         826.0346  -903.8988  -594.9870 H6            1 RES     
   19720 H6         824.4224  -904.5279  -595.3397 H6            1 RES     
   19721 H6         825.0924  -902.1432  -593.4778 H6            1 RES     
   19722 H6         824.4250  -902.0390  -595.1513 H6            1 RES     
   19723 H6         823.4188  -902.7344  -593.8332 H6            1 RES     
   19724 C0         817.3571  -923.5674  -583.5490 C0            1 RES     
   19725 C1         816.2543  -922.4888  -583.5177 C1            1 RES     
   19726 C1         814.8968  -923.0104  -583.2565 C1            1 RES     
   19727 S2         813.7830  -921.9607  -584.2028 S2            1 RES     
   19728 C1         814.9893  -920.6709  -583.8220 C1            1 RES     
   19729 C1         816.2703  -921.1698  -583.6768 C1            1 RES     
   19730 C1         815.1184  -924.4175  -583.5547 C1            1 RES     
   19731 C1         816.4300  -924.7722  -583.6841 C1            1 RES     
   19732 C1         816.6009  -926.1532  -583.8891 C1            1 RES     
   19733 C1         815.3631  -926.8394  -583.8637 C1            1 RES     
   19734 S2         814.1063  -925.7291  -583.5947 S2            1 RES     
   19735 H3         817.1427  -920.5518  -583.8122 H3            1 RES     
   19736 H3         817.5624  -926.6311  -584.0298 H3            1 RES     
   19737 N4         816.0903  -929.0389  -584.7005 N4            1 RES     
   19738 C1         815.9261  -930.3679  -584.9710 C1            1 RES     
   19739 C1         814.7634  -931.0422  -584.5785 C1            1 RES     
   19740 C1         813.7817  -930.3271  -583.9041 C1            1 RES     
   19741 N4         812.6262  -930.8781  -583.4585 N4            1 RES     
   19742 S2         811.8767  -929.5916  -582.7439 S2            1 RES     
   19743 N4         812.9364  -928.3451  -582.9730 N4            1 RES     
   19744 C1         813.9569  -928.9404  -583.6452 C1            1 RES     
   19745 C1         815.1405  -928.2931  -584.0606 C1            1 RES     
   19746 H5         816.7005  -930.9069  -585.5013 H5            1 RES     
   19747 C0         818.0829  -923.6429  -582.1665 C0            1 RES     
   19748 C0         818.8748  -922.3789  -581.8171 C0            1 RES     
   19749 C0         819.4860  -922.3292  -580.4133 C0            1 RES     
   19750 C0         818.4865  -922.3685  -579.2463 C0            1 RES     
   19751 C0         817.2941  -921.4068  -579.4273 C0            1 RES     
   19752 C0         816.4778  -921.2503  -578.1386 C0            1 RES     
   19753 C0         817.1636  -920.2696  -577.1746 C0            1 RES     
   19754 C0         816.3998  -920.1479  -575.8555 C0            1 RES     
   19755 C0         816.9752  -919.0081  -575.0092 C0            1 RES     
   19756 C0         816.5151  -918.9469  -573.5389 C0            1 RES     
   19757 C0         815.0050  -918.8302  -573.2507 C0            1 RES     
   19758 C0         814.2517  -920.1772  -573.3268 C0            1 RES     
   19759 C0         812.7517  -920.1112  -572.9770 C0            1 RES     
   19760 C0         812.3687  -920.1001  -571.4774 C0            1 RES     
   19761 C0         812.7527  -918.8763  -570.6327 C0            1 RES     
   19762 C0         812.2051  -917.5682  -571.2003 C0            1 RES     
   19763 H6         817.3054  -923.7889  -581.3869 H6            1 RES     
   19764 H6         818.7587  -924.5251  -582.1321 H6            1 RES     
   19765 H6         819.7129  -922.3052  -582.5081 H6            1 RES     
   19766 H6         818.2391  -921.4819  -581.9346 H6            1 RES     
   19767 H6         820.2313  -923.1435  -580.2827 H6            1 RES     
   19768 H6         820.0321  -921.3612  -580.3517 H6            1 RES     
   19769 H6         818.0840  -923.3967  -579.1171 H6            1 RES     
   19770 H6         819.0698  -922.1220  -578.3353 H6            1 RES     
   19771 H6         817.6203  -920.4013  -579.7725 H6            1 RES     
   19772 H6         816.6356  -921.8390  -580.2110 H6            1 RES     
   19773 H6         816.3031  -922.2468  -577.6757 H6            1 RES     
   19774 H6         815.4890  -920.8115  -578.3969 H6            1 RES     
   19775 H6         818.2021  -920.5868  -576.9458 H6            1 RES     
   19776 H6         817.2018  -919.2755  -577.6747 H6            1 RES     
   19777 H6         815.3403  -919.9133  -576.0836 H6            1 RES     
   19778 H6         816.4814  -921.1172  -575.3166 H6            1 RES     
   19779 H6         818.0828  -919.1074  -574.9748 H6            1 RES     
   19780 H6         816.7381  -918.0463  -575.5169 H6            1 RES     
   19781 H6         816.9265  -919.8072  -572.9682 H6            1 RES     
   19782 H6         816.9968  -918.0286  -573.1342 H6            1 RES     
   19783 H6         814.5428  -918.0591  -573.9044 H6            1 RES     
   19784 H6         814.9447  -918.4673  -572.2176 H6            1 RES     
   19785 H6         814.2896  -920.5362  -574.3646 H6            1 RES     
   19786 H6         814.7426  -920.9471  -572.6927 H6            1 RES     
   19787 H6         812.3115  -921.0590  -573.3607 H6            1 RES     
   19788 H6         812.2614  -919.2863  -573.5358 H6            1 RES     
   19789 H6         811.2611  -920.1922  -571.4323 H6            1 RES     
   19790 H6         812.7947  -921.0053  -570.9918 H6            1 RES     
   19791 H6         812.3283  -919.0198  -569.6155 H6            1 RES     
   19792 H6         813.8459  -918.8156  -570.4941 H6            1 RES     
   19793 H6         811.0989  -917.6191  -571.2834 H6            1 RES     
   19794 H6         812.4743  -916.7306  -570.5232 H6            1 RES     
   19795 H6         812.6370  -917.3576  -572.1998 H6            1 RES     
   19796 C0         818.3391  -923.5118  -584.7914 C0            1 RES     
   19797 C0         818.8068  -922.0962  -585.2098 C0            1 RES     
   19798 C0         819.9003  -921.9945  -586.2953 C0            1 RES     
   19799 C0         821.3627  -922.2776  -585.8707 C0            1 RES     
   19800 C0         821.7778  -921.4932  -584.6085 C0            1 RES     
   19801 C0         823.2900  -921.4033  -584.3576 C0            1 RES     
   19802 C0         823.9422  -920.3132  -585.2238 C0            1 RES     
   19803 C0         825.4367  -920.1559  -584.9066 C0            1 RES     
   19804 C0         826.0169  -918.9419  -585.6442 C0            1 RES     
   19805 C0         827.5544  -918.8008  -585.6514 C0            1 RES     
   19806 C0         828.2932  -918.6072  -584.3100 C0            1 RES     
   19807 C0         828.5014  -919.9077  -583.5073 C0            1 RES     
   19808 C0         829.3241  -919.7513  -582.2105 C0            1 RES     
   19809 C0         830.8672  -919.7128  -582.3417 C0            1 RES     
   19810 C0         831.5171  -918.5053  -583.0345 C0            1 RES     
   19811 C0         831.1439  -917.1751  -582.3832 C0            1 RES     
   19812 H6         819.2067  -924.1728  -584.5774 H6            1 RES     
   19813 H6         817.8327  -923.9237  -585.6930 H6            1 RES     
   19814 H6         817.9133  -921.6062  -585.6488 H6            1 RES     
   19815 H6         819.1288  -921.4806  -584.3594 H6            1 RES     
   19816 H6         819.6293  -922.6072  -587.1817 H6            1 RES     
   19817 H6         819.8954  -920.9300  -586.6204 H6            1 RES     
   19818 H6         821.5345  -923.3616  -585.6942 H6            1 RES     
   19819 H6         821.9945  -921.9691  -586.7304 H6            1 RES     
   19820 H6         821.3656  -920.4600  -584.6147 H6            1 RES     
   19821 H6         821.3457  -922.0371  -583.7581 H6            1 RES     
   19822 H6         823.7714  -922.3970  -584.4896 H6            1 RES     
   19823 H6         823.4314  -921.0894  -583.3005 H6            1 RES     
   19824 H6         823.8146  -920.5410  -586.3028 H6            1 RES     
   19825 H6         823.4316  -919.3485  -585.0019 H6            1 RES     
   19826 H6         825.5396  -919.9886  -583.8170 H6            1 RES     
   19827 H6         825.9646  -921.0856  -585.2089 H6            1 RES     
   19828 H6         825.7195  -919.0146  -586.7136 H6            1 RES     
   19829 H6         825.5581  -918.0168  -585.2285 H6            1 RES     
   19830 H6         828.0167  -919.6460  -586.2055 H6            1 RES     
   19831 H6         827.7444  -917.8796  -586.2469 H6            1 RES     
   19832 H6         827.7929  -917.8248  -583.6991 H6            1 RES     
   19833 H6         829.2817  -918.2222  -584.5901 H6            1 RES     
   19834 H6         827.5142  -920.2681  -583.1857 H6            1 RES     
   19835 H6         828.9601  -920.7000  -584.1375 H6            1 RES     
   19836 H6         829.1282  -920.6738  -581.6191 H6            1 RES     
   19837 H6         828.9396  -918.9020  -581.6071 H6            1 RES     
   19838 H6         831.2753  -919.7499  -581.3073 H6            1 RES     
   19839 H6         831.2054  -920.6357  -582.8616 H6            1 RES     
   19840 H6         832.6201  -918.6282  -582.9649 H6            1 RES     
   19841 H6         831.2854  -918.4914  -584.1136 H6            1 RES     
   19842 H6         831.4332  -917.1780  -581.3108 H6            1 RES     
   19843 H6         831.6820  -916.3496  -582.8947 H6            1 RES     
   19844 H6         830.0546  -916.9845  -582.4679 H6            1 RES     
   19845 C0         815.8910  -936.1990  -585.0591 C0            1 RES     
   19846 C1         815.1415  -934.8531  -584.9754 C1            1 RES     
   19847 C1         813.7525  -934.8951  -585.4773 C1            1 RES     
   19848 S2         813.4552  -933.2828  -586.2190 S2            1 RES     
   19849 C1         814.5575  -932.6961  -584.9132 C1            1 RES     
   19850 C1         815.4880  -933.6471  -584.5385 C1            1 RES     
   19851 C1         813.8109  -936.1310  -586.2435 C1            1 RES     
   19852 C1         814.9271  -936.8849  -586.0233 C1            1 RES     
   19853 C1         814.9026  -938.1067  -586.7198 C1            1 RES     
   19854 C1         813.6968  -938.2683  -587.4434 C1            1 RES     
   19855 S2         812.7079  -936.9081  -587.2056 S2            1 RES     
   19856 H3         816.4202  -933.3799  -584.0684 H3            1 RES     
   19857 H3         815.7003  -938.8384  -586.6893 H3            1 RES     
   19858 N4         814.2915  -940.2300  -588.8089 N4            1 RES     
   19859 C1         814.0215  -941.2642  -589.6598 C1            1 RES     
   19860 C1         812.7069  -941.5509  -590.0469 C1            1 RES     
   19861 C1         811.6828  -940.7595  -589.5420 C1            1 RES     
   19862 N4         810.3729  -940.9555  -589.8302 N4            1 RES     
   19863 S2         809.6397  -939.7560  -588.9634 S2            1 RES     
   19864 N4         810.8995  -938.9745  -588.2344 N4            1 RES     
   19865 C1         811.9790  -939.6749  -588.6722 C1            1 RES     
   19866 C1         813.3173  -939.4130  -588.3078 C1            1 RES     
   19867 H5         814.8334  -941.8669  -590.0460 H5            1 RES     
   19868 C0         815.8370  -936.9377  -583.6824 C0            1 RES     
   19869 C0         816.5942  -936.2133  -582.5650 C0            1 RES     
   19870 C0         816.4562  -936.8059  -581.1591 C0            1 RES     
   19871 C0         815.0346  -936.8192  -580.5749 C0            1 RES     
   19872 C0         814.2871  -935.4813  -580.7495 C0            1 RES     
   19873 C0         813.0023  -935.4245  -579.9143 C0            1 RES     
   19874 C0         813.3197  -935.0925  -578.4478 C0            1 RES     
   19875 C0         812.0585  -935.0945  -577.5830 C0            1 RES     
   19876 C0         812.3686  -934.5471  -576.1864 C0            1 RES     
   19877 C0         811.2835  -934.7578  -575.1115 C0            1 RES     
   19878 C0         809.8751  -934.1884  -575.3744 C0            1 RES     
   19879 C0         809.0041  -935.0806  -576.2870 C0            1 RES     
   19880 C0         807.5650  -934.5777  -576.5168 C0            1 RES     
   19881 C0         806.5222  -934.8696  -575.4109 C0            1 RES     
   19882 C0         806.6854  -934.1775  -574.0496 C0            1 RES     
   19883 C0         806.7425  -932.6552  -574.1610 C0            1 RES     
   19884 H6         814.7699  -937.0123  -583.3833 H6            1 RES     
   19885 H6         816.2276  -937.9738  -583.7837 H6            1 RES     
   19886 H6         817.6568  -936.2508  -582.7995 H6            1 RES     
   19887 H6         816.2806  -935.1544  -582.5114 H6            1 RES     
   19888 H6         816.8736  -937.8356  -581.1264 H6            1 RES     
   19889 H6         817.0829  -936.1684  -580.4957 H6            1 RES     
   19890 H6         814.4280  -937.6185  -581.0536 H6            1 RES     
   19891 H6         815.1467  -937.0827  -579.5030 H6            1 RES     
   19892 H6         814.9272  -934.6107  -580.4871 H6            1 RES     
   19893 H6         814.0137  -935.3919  -581.8228 H6            1 RES     
   19894 H6         812.4374  -936.3771  -580.0201 H6            1 RES     
   19895 H6         812.3643  -934.5999  -580.3016 H6            1 RES     
   19896 H6         814.0380  -935.8191  -578.0148 H6            1 RES     
   19897 H6         813.7850  -934.0812  -578.4236 H6            1 RES     
   19898 H6         811.3059  -934.4334  -578.0584 H6            1 RES     
   19899 H6         811.6821  -936.1390  -577.5209 H6            1 RES     
   19900 H6         813.2815  -935.0492  -575.7962 H6            1 RES     
   19901 H6         812.5955  -933.4615  -576.2827 H6            1 RES     
   19902 H6         811.1956  -935.8359  -574.8562 H6            1 RES     
   19903 H6         811.6814  -934.2418  -574.2091 H6            1 RES     
   19904 H6         809.9419  -933.1462  -575.7550 H6            1 RES     
   19905 H6         809.4002  -934.1500  -574.3867 H6            1 RES     
   19906 H6         809.4628  -935.1060  -577.2852 H6            1 RES     
   19907 H6         808.9715  -936.1265  -575.9116 H6            1 RES     
   19908 H6         807.1869  -935.1411  -577.3994 H6            1 RES     
   19909 H6         807.5728  -933.5057  -576.8061 H6            1 RES     
   19910 H6         805.5341  -934.5598  -575.8171 H6            1 RES     
   19911 H6         806.4787  -935.9675  -575.2398 H6            1 RES     
   19912 H6         805.8077  -934.4489  -573.4240 H6            1 RES     
   19913 H6         807.5673  -934.5639  -573.5100 H6            1 RES     
   19914 H6         805.8248  -932.2719  -574.6552 H6            1 RES     
   19915 H6         806.8123  -932.2131  -573.1451 H6            1 RES     
   19916 H6         807.6312  -932.3327  -574.7406 H6            1 RES     
   19917 C0         817.3369  -936.1427  -585.7050 C0            1 RES     
   19918 C0         818.2131  -934.9400  -585.2766 C0            1 RES     
   19919 C0         819.6884  -934.9299  -585.7324 C0            1 RES     
   19920 C0         820.6828  -935.8388  -584.9682 C0            1 RES     
   19921 C0         820.5875  -935.6691  -583.4375 C0            1 RES     
   19922 C0         821.7802  -936.2156  -582.6396 C0            1 RES     
   19923 C0         822.9651  -935.2359  -582.6532 C0            1 RES     
   19924 C0         824.1241  -935.7360  -581.7782 C0            1 RES     
   19925 C0         825.2099  -934.6584  -581.6589 C0            1 RES     
   19926 C0         826.5577  -935.0929  -581.0435 C0            1 RES     
   19927 C0         826.5868  -935.5866  -579.5813 C0            1 RES     
   19928 C0         826.1282  -937.0475  -579.3959 C0            1 RES     
   19929 C0         826.2433  -937.5915  -577.9559 C0            1 RES     
   19930 C0         827.6351  -938.0822  -577.4849 C0            1 RES     
   19931 C0         828.7580  -937.0490  -577.3058 C0            1 RES     
   19932 C0         828.3859  -935.9297  -576.3354 C0            1 RES     
   19933 H6         817.8490  -937.1063  -585.4934 H6            1 RES     
   19934 H6         817.2541  -936.0561  -586.8117 H6            1 RES     
   19935 H6         817.7530  -934.0518  -585.7569 H6            1 RES     
   19936 H6         818.2021  -934.7642  -584.1927 H6            1 RES     
   19937 H6         819.7608  -935.1111  -586.8262 H6            1 RES     
   19938 H6         820.0468  -933.8921  -585.5490 H6            1 RES     
   19939 H6         820.5345  -936.9108  -585.2219 H6            1 RES     
   19940 H6         821.6950  -935.5438  -585.3174 H6            1 RES     
   19941 H6         820.4385  -934.6043  -583.1522 H6            1 RES     
   19942 H6         819.7050  -936.2421  -583.1236 H6            1 RES     
   19943 H6         822.0622  -937.2302  -582.9972 H6            1 RES     
   19944 H6         821.4570  -936.3012  -581.5794 H6            1 RES     
   19945 H6         823.3273  -935.0729  -583.6899 H6            1 RES     
   19946 H6         822.6095  -934.2628  -582.2444 H6            1 RES     
   19947 H6         823.7239  -935.9465  -580.7677 H6            1 RES     
   19948 H6         824.5398  -936.6608  -582.2324 H6            1 RES     
   19949 H6         825.4523  -934.2992  -582.6834 H6            1 RES     
   19950 H6         824.7984  -933.7963  -581.0876 H6            1 RES     
   19951 H6         827.0540  -935.8451  -581.6940 H6            1 RES     
   19952 H6         827.1844  -934.1734  -581.0739 H6            1 RES     
   19953 H6         826.0185  -934.8928  -578.9245 H6            1 RES     
   19954 H6         827.6423  -935.5250  -579.2881 H6            1 RES     
   19955 H6         825.0588  -937.1001  -579.6439 H6            1 RES     
   19956 H6         826.6682  -937.7292  -580.0881 H6            1 RES     
   19957 H6         825.6132  -938.5089  -577.9316 H6            1 RES     
   19958 H6         825.7908  -936.8787  -577.2345 H6            1 RES     
   19959 H6         827.4829  -938.5685  -576.4958 H6            1 RES     
   19960 H6         827.9937  -938.8678  -578.1855 H6            1 RES     
   19961 H6         829.6455  -937.5807  -576.8981 H6            1 RES     
   19962 H6         829.0782  -936.6345  -578.2773 H6            1 RES     
   19963 H6         828.1205  -936.3536  -575.3437 H6            1 RES     
   19964 H6         829.2520  -935.2465  -576.2102 H6            1 RES     
   19965 H6         827.5306  -935.3387  -576.7218 H6            1 RES     
   19966 C0         812.8986  -946.3756  -592.2335 C0            1 RES     
   19967 C1         812.4786  -944.9379  -591.8635 C1            1 RES     
   19968 C1         811.5208  -944.3201  -592.8036 C1            1 RES     
   19969 S2         811.9346  -942.5693  -592.8379 S2            1 RES     
   19970 C1         812.3685  -942.8379  -591.1048 C1            1 RES     
   19971 C1         812.8013  -944.1279  -590.8609 C1            1 RES     
   19972 C1         811.6966  -945.2074  -593.9437 C1            1 RES     
   19973 C1         812.4005  -946.3456  -593.6758 C1            1 RES     
   19974 C1         812.4747  -947.2107  -594.7824 C1            1 RES     
   19975 C1         811.7564  -946.7002  -595.8901 C1            1 RES     
   19976 S2         811.0605  -945.2079  -595.4739 S2            1 RES     
   19977 H3         813.4269  -944.3706  -590.0177 H3            1 RES     
   19978 H3         813.0009  -948.1572  -594.7782 H3            1 RES     
   19979 N4         812.5368  -948.2479  -597.6401 N4            1 RES     
   19980 C1         812.5110  -948.8123  -598.8840 C1            1 RES     
   19981 C1         811.5143  -948.4715  -599.8065 C1            1 RES     
   19982 C1         810.5499  -947.5474  -599.4247 C1            1 RES     
   19983 N4         809.5276  -947.1574  -600.2248 N4            1 RES     
   19984 S2         808.7187  -946.0855  -599.2634 S2            1 RES     
   19985 N4         809.6013  -946.0699  -597.8669 N4            1 RES     
   19986 C1         810.5988  -946.9537  -598.1341 C1            1 RES     
   19987 C1         811.6218  -947.3182  -597.2324 C1            1 RES     
   19988 H5         813.2737  -949.5273  -599.1644 H5            1 RES     
   19989 C0         812.0503  -947.4136  -591.4291 C0            1 RES     
   19990 C0         812.3056  -947.3792  -589.9190 C0            1 RES     
   19991 C0         811.4000  -948.2661  -589.0589 C0            1 RES     
   19992 C0         809.9005  -947.9309  -589.1000 C0            1 RES     
   19993 C0         809.6042  -946.4249  -588.9464 C0            1 RES     
   19994 C0         808.1156  -946.1516  -588.6998 C0            1 RES     
   19995 C0         807.7509  -946.4060  -587.2288 C0            1 RES     
   19996 C0         806.2569  -946.2020  -586.9744 C0            1 RES     
   19997 C0         805.9613  -946.2428  -585.4720 C0            1 RES     
   19998 C0         804.4771  -946.3493  -585.0684 C0            1 RES     
   19999 C0         803.5073  -945.2547  -585.5570 C0            1 RES     
   20000 C0         803.0240  -945.4562  -587.0107 C0            1 RES     
   20001 C0         801.9992  -944.4190  -587.5114 C0            1 RES     
   20002 C0         800.5206  -944.6216  -587.1015 C0            1 RES     
   20003 C0         800.1442  -944.4708  -585.6201 C0            1 RES     
   20004 C0         800.5427  -943.1143  -585.0420 C0            1 RES     
   20005 H6         810.9789  -947.1780  -591.6029 H6            1 RES     
   20006 H6         812.2317  -948.4414  -591.8125 H6            1 RES     
   20007 H6         813.3205  -947.7312  -589.7413 H6            1 RES     
   20008 H6         812.2175  -946.3453  -589.5374 H6            1 RES     
   20009 H6         811.5414  -949.3375  -589.3189 H6            1 RES     
   20010 H6         811.7436  -948.1272  -588.0092 H6            1 RES     
   20011 H6         809.4543  -948.2744  -590.0584 H6            1 RES     
   20012 H6         809.4327  -948.5201  -588.2845 H6            1 RES     
   20013 H6         810.1965  -945.9669  -588.1241 H6            1 RES     
   20014 H6         809.9005  -945.9302  -589.8961 H6            1 RES     
   20015 H6         807.4969  -946.7556  -589.4001 H6            1 RES     
   20016 H6         807.9148  -945.0764  -588.9013 H6            1 RES     
   20017 H6         808.0177  -947.4375  -586.9184 H6            1 RES     
   20018 H6         808.3347  -945.6898  -586.6075 H6            1 RES     
   20019 H6         805.9683  -945.2033  -587.3603 H6            1 RES     
   20020 H6         805.7015  -947.0053  -587.5060 H6            1 RES     
   20021 H6         806.4589  -947.1345  -585.0301 H6            1 RES     
   20022 H6         806.4130  -945.3385  -585.0057 H6            1 RES     
   20023 H6         804.0699  -947.3445  -585.3492 H6            1 RES     
   20024 H6         804.4868  -946.3045  -583.9563 H6            1 RES     
   20025 H6         803.9494  -944.2466  -585.4028 H6            1 RES     
   20026 H6         802.6358  -945.3383  -584.8966 H6            1 RES     
   20027 H6         803.8892  -945.3522  -587.6801 H6            1 RES     
   20028 H6         802.6130  -946.4785  -587.1582 H6            1 RES     
   20029 H6         801.9877  -944.5187  -588.6202 H6            1 RES     
   20030 H6         802.3529  -943.3898  -587.2906 H6            1 RES     
   20031 H6         799.9287  -943.8678  -587.6660 H6            1 RES     
   20032 H6         800.1878  -945.6258  -587.4442 H6            1 RES     
   20033 H6         799.0406  -944.5742  -585.5385 H6            1 RES     
   20034 H6         800.5663  -945.2928  -585.0167 H6            1 RES     
   20035 H6         800.0676  -942.2952  -585.6222 H6            1 RES     
   20036 H6         800.2029  -943.0484  -583.9871 H6            1 RES     
   20037 H6         801.6437  -942.9832  -585.0596 H6            1 RES     
   20038 C0         814.4567  -946.6635  -592.2163 C0            1 RES     
   20039 C0         815.2364  -946.0473  -591.0288 C0            1 RES     
   20040 C0         816.7198  -946.4428  -590.8632 C0            1 RES     
   20041 C0         817.0292  -947.8335  -590.2557 C0            1 RES     
   20042 C0         816.2489  -948.0995  -588.9515 C0            1 RES     
   20043 C0         816.7825  -949.2525  -588.0892 C0            1 RES     
   20044 C0         817.9946  -948.8158  -587.2500 C0            1 RES     
   20045 C0         818.4715  -949.9382  -586.3163 C0            1 RES     
   20046 C0         819.5542  -949.4180  -585.3615 C0            1 RES     
   20047 C0         820.3297  -950.4750  -584.5459 C0            1 RES     
   20048 C0         819.5595  -951.3521  -583.5359 C0            1 RES     
   20049 C0         818.7937  -952.5296  -584.1732 C0            1 RES     
   20050 C0         818.0979  -953.4759  -583.1717 C0            1 RES     
   20051 C0         818.9693  -954.5561  -582.4834 C0            1 RES     
   20052 C0         820.0465  -954.1063  -581.4845 C0            1 RES     
   20053 C0         819.4818  -953.2675  -580.3397 C0            1 RES     
   20054 H6         814.6065  -947.7638  -592.2654 H6            1 RES     
   20055 H6         814.9317  -946.2310  -593.1254 H6            1 RES     
   20056 H6         815.2449  -944.9535  -591.2152 H6            1 RES     
   20057 H6         814.7430  -946.2071  -590.0609 H6            1 RES     
   20058 H6         817.2695  -946.3072  -591.8193 H6            1 RES     
   20059 H6         817.1411  -945.7110  -590.1379 H6            1 RES     
   20060 H6         816.8148  -948.6515  -590.9772 H6            1 RES     
   20061 H6         818.1205  -947.8397  -590.0495 H6            1 RES     
   20062 H6         816.1921  -947.1887  -588.3154 H6            1 RES     
   20063 H6         815.2314  -948.3758  -589.2583 H6            1 RES     
   20064 H6         816.9975  -950.1462  -588.7150 H6            1 RES     
   20065 H6         815.9822  -949.5222  -587.3663 H6            1 RES     
   20066 H6         818.8321  -948.4988  -587.9061 H6            1 RES     
   20067 H6         817.6839  -947.9469  -586.6262 H6            1 RES     
   20068 H6         817.6046  -950.2755  -585.7160 H6            1 RES     
   20069 H6         818.8646  -950.7730  -586.9351 H6            1 RES     
   20070 H6         820.3215  -948.8876  -585.9676 H6            1 RES     
   20071 H6         819.0964  -948.6745  -584.6711 H6            1 RES     
   20072 H6         820.9194  -951.1290  -585.2239 H6            1 RES     
   20073 H6         821.0600  -949.8827  -583.9499 H6            1 RES     
   20074 H6         818.8938  -950.7252  -582.9037 H6            1 RES     
   20075 H6         820.3353  -951.7693  -582.8817 H6            1 RES     
   20076 H6         817.9861  -952.1125  -584.7911 H6            1 RES     
   20077 H6         819.4544  -953.1250  -584.8398 H6            1 RES     
   20078 H6         817.3681  -954.0633  -583.7729 H6            1 RES     
   20079 H6         817.5042  -952.8936  -582.4357 H6            1 RES     
   20080 H6         818.2714  -955.2212  -581.9279 H6            1 RES     
   20081 H6         819.4584  -955.1746  -583.2674 H6            1 RES     
   20082 H6         820.5082  -955.0199  -581.0501 H6            1 RES     
   20083 H6         820.8659  -953.5710  -581.9947 H6            1 RES     
   20084 H6         818.6978  -953.8370  -579.7968 H6            1 RES     
   20085 H6         820.2967  -953.0171  -579.6285 H6            1 RES     
   20086 H6         819.0490  -952.3196  -580.7194 H6            1 RES     
   20087 C0         811.7848  -952.1590  -603.6045 C0            1 RES     
   20088 C1         811.5280  -950.8448  -602.8381 C1            1 RES     
   20089 C1         811.2774  -949.6728  -603.7021 C1            1 RES     
   20090 S2         811.9890  -948.2674  -602.8324 S2            1 RES     
   20091 C1         811.4798  -949.1733  -601.3545 C1            1 RES     
   20092 C1         811.4827  -950.5424  -601.5451 C1            1 RES     
   20093 C1         811.8003  -950.1850  -604.9599 C1            1 RES     
   20094 C1         812.0536  -951.5260  -604.9670 C1            1 RES     
   20095 C1         812.4778  -951.9914  -606.2247 C1            1 RES     
   20096 C1         812.4915  -950.9522  -607.1857 C1            1 RES     
   20097 S2         811.9871  -949.5026  -606.4585 S2            1 RES     
   20098 H3         811.5682  -951.2334  -600.7226 H3            1 RES     
   20099 H3         812.7422  -953.0207  -606.4331 H3            1 RES     
   20100 N4         813.6953  -952.0888  -609.0094 N4            1 RES     
   20101 C1         814.1581  -952.2117  -610.2890 C1            1 RES     
   20102 C1         813.8118  -951.2753  -611.2706 C1            1 RES     
   20103 C1         812.9832  -950.2194  -610.9123 C1            1 RES     
   20104 N4         812.5660  -949.2662  -611.7812 N4            1 RES     
   20105 S2         811.6223  -948.3072  -610.8234 S2            1 RES     
   20106 N4         811.7135  -949.0267  -609.3391 N4            1 RES     
   20107 C1         812.5236  -950.0928  -609.5732 C1            1 RES     
   20108 C1         812.8977  -951.0537  -608.6092 C1            1 RES     
   20109 H5         814.8062  -953.0390  -610.5478 H5            1 RES     
   20110 C0         810.4716  -953.0029  -603.6914 C0            1 RES     
   20111 C0         809.9751  -953.5103  -602.3339 C0            1 RES     
   20112 C0         808.6155  -954.2162  -602.3311 C0            1 RES     
   20113 C0         807.4162  -953.3606  -602.7693 C0            1 RES     
   20114 C0         807.3821  -951.9676  -602.1078 C0            1 RES     
   20115 C0         806.0425  -951.2554  -602.3304 C0            1 RES     
   20116 C0         804.9774  -951.7800  -601.3547 C0            1 RES     
   20117 C0         803.6159  -951.1293  -601.6024 C0            1 RES     
   20118 C0         802.6364  -951.4997  -600.4844 C0            1 RES     
   20119 C0         801.1516  -951.1708  -600.7376 C0            1 RES     
   20120 C0         800.7677  -949.7062  -601.0288 C0            1 RES     
   20121 C0         801.0095  -949.2797  -602.4941 C0            1 RES     
   20122 C0         800.5731  -947.8420  -602.8399 C0            1 RES     
   20123 C0         799.0712  -947.6019  -603.1267 C0            1 RES     
   20124 C0         798.0700  -947.7674  -601.9739 C0            1 RES     
   20125 C0         798.3989  -946.8850  -600.7713 C0            1 RES     
   20126 H6         809.6830  -952.3525  -604.1257 H6            1 RES     
   20127 H6         810.6102  -953.8640  -604.3810 H6            1 RES     
   20128 H6         810.6908  -954.2440  -601.9667 H6            1 RES     
   20129 H6         809.9184  -952.6773  -601.6091 H6            1 RES     
   20130 H6         808.6524  -955.1376  -602.9518 H6            1 RES     
   20131 H6         808.4351  -954.5280  -601.2778 H6            1 RES     
   20132 H6         807.4253  -953.2190  -603.8719 H6            1 RES     
   20133 H6         806.5110  -953.9503  -602.5166 H6            1 RES     
   20134 H6         807.5854  -952.0214  -601.0158 H6            1 RES     
   20135 H6         808.1863  -951.3593  -602.5744 H6            1 RES     
   20136 H6         805.7298  -951.3568  -603.3933 H6            1 RES     
   20137 H6         806.1761  -950.1731  -602.1116 H6            1 RES     
   20138 H6         804.8567  -952.8797  -601.4406 H6            1 RES     
   20139 H6         805.3197  -951.5434  -600.3220 H6            1 RES     
   20140 H6         803.7475  -950.0283  -601.6010 H6            1 RES     
   20141 H6         803.2380  -951.4795  -602.5878 H6            1 RES     
   20142 H6         802.6778  -952.5990  -600.3177 H6            1 RES     
   20143 H6         802.9764  -951.0033  -599.5479 H6            1 RES     
   20144 H6         800.7433  -951.8184  -601.5433 H6            1 RES     
   20145 H6         800.6369  -951.4621  -599.7946 H6            1 RES     
   20146 H6         801.2688  -949.0226  -600.3097 H6            1 RES     
   20147 H6         799.6893  -949.6562  -600.8360 H6            1 RES     
   20148 H6         802.0908  -949.3066  -602.6879 H6            1 RES     
   20149 H6         800.5290  -949.9891  -603.2023 H6            1 RES     
   20150 H6         801.0739  -947.5995  -603.8041 H6            1 RES     
   20151 H6         800.9708  -947.1272  -602.0890 H6            1 RES     
   20152 H6         798.9810  -946.5538  -603.4882 H6            1 RES     
   20153 H6         798.7546  -948.2665  -603.9603 H6            1 RES     
   20154 H6         797.0656  -947.4799  -602.3532 H6            1 RES     
   20155 H6         797.9831  -948.8252  -601.6712 H6            1 RES     
   20156 H6         798.4289  -945.8174  -601.0753 H6            1 RES     
   20157 H6         797.6164  -947.0133  -599.9943 H6            1 RES     
   20158 H6         799.3759  -947.1661  -600.3281 H6            1 RES     
   20159 C0         813.0550  -952.9872  -603.1445 C0            1 RES     
   20160 C0         813.2750  -953.0772  -601.6144 C0            1 RES     
   20161 C0         814.3894  -954.0168  -601.1047 C0            1 RES     
   20162 C0         814.0932  -955.5368  -601.0825 C0            1 RES     
   20163 C0         812.7496  -955.8709  -600.4016 C0            1 RES     
   20164 C0         812.5699  -957.3379  -599.9852 C0            1 RES     
   20165 C0         813.2918  -957.6418  -598.6621 C0            1 RES     
   20166 C0         813.0354  -959.0820  -598.1943 C0            1 RES     
   20167 C0         813.6074  -959.2989  -596.7872 C0            1 RES     
   20168 C0         813.6760  -960.7557  -596.2802 C0            1 RES     
   20169 C0         812.3627  -961.5465  -596.0998 C0            1 RES     
   20170 C0         811.7824  -962.1193  -597.4090 C0            1 RES     
   20171 C0         810.5234  -962.9960  -597.2380 C0            1 RES     
   20172 C0         810.7303  -964.4708  -596.8113 C0            1 RES     
   20173 C0         811.2630  -964.7608  -595.3997 C0            1 RES     
   20174 C0         810.3952  -964.1509  -594.3006 C0            1 RES     
   20175 H6         812.9926  -953.9992  -603.5999 H6            1 RES     
   20176 H6         813.9806  -952.5110  -603.5389 H6            1 RES     
   20177 H6         813.5843  -952.0594  -601.2988 H6            1 RES     
   20178 H6         812.3586  -953.3232  -601.0617 H6            1 RES     
   20179 H6         815.3436  -953.8163  -601.6374 H6            1 RES     
   20180 H6         814.5458  -953.7378  -600.0385 H6            1 RES     
   20181 H6         814.0953  -955.9686  -602.1068 H6            1 RES     
   20182 H6         814.9280  -956.0014  -600.5162 H6            1 RES     
   20183 H6         812.5741  -955.2330  -599.5073 H6            1 RES     
   20184 H6         811.9710  -955.6531  -601.1447 H6            1 RES     
   20185 H6         812.8792  -958.0215  -600.8060 H6            1 RES     
   20186 H6         811.4863  -957.4968  -599.7942 H6            1 RES     
   20187 H6         814.3845  -957.4744  -598.7641 H6            1 RES     
   20188 H6         812.8966  -956.9446  -597.8886 H6            1 RES     
   20189 H6         811.9403  -959.2403  -598.1579 H6            1 RES     
   20190 H6         813.5054  -959.7807  -598.9191 H6            1 RES     
   20191 H6         814.6576  -958.9322  -596.7824 H6            1 RES     
   20192 H6         813.0300  -958.6784  -596.0657 H6            1 RES     
   20193 H6         814.3778  -961.3490  -596.9051 H6            1 RES     
   20194 H6         814.1318  -960.6747  -595.2678 H6            1 RES     
   20195 H6         811.6123  -960.9360  -595.5521 H6            1 RES     
   20196 H6         812.6332  -962.3908  -595.4534 H6            1 RES     
   20197 H6         811.4672  -961.2743  -598.0371 H6            1 RES     
   20198 H6         812.5510  -962.6901  -597.9736 H6            1 RES     
   20199 H6         810.0714  -963.0713  -598.2525 H6            1 RES     
   20200 H6         809.7764  -962.4816  -596.5972 H6            1 RES     
   20201 H6         809.7376  -964.9669  -596.8902 H6            1 RES     
   20202 H6         811.4037  -964.9648  -597.5455 H6            1 RES     
   20203 H6         811.2729  -965.8641  -595.2616 H6            1 RES     
   20204 H6         812.3129  -964.4369  -595.2945 H6            1 RES     
   20205 H6         809.3534  -964.5274  -594.3804 H6            1 RES     
   20206 H6         810.8018  -964.4366  -593.3078 H6            1 RES     
   20207 H6         810.3906  -963.0439  -594.3683 H6            1 RES     
   20208 C0         815.1415  -953.5127  -615.8882 C0            1 RES     
   20209 C1         814.8110  -952.4838  -614.7870 C1            1 RES     
   20210 C1         815.2375  -951.1028  -615.0932 C1            1 RES     
   20211 S2         815.7047  -950.3774  -613.5142 S2            1 RES     
   20212 C1         814.3857  -951.4267  -612.8636 C1            1 RES     
   20213 C1         814.2129  -952.5809  -613.6045 C1            1 RES     
   20214 C1         816.1870  -951.3758  -616.1618 C1            1 RES     
   20215 C1         816.1463  -952.6506  -616.6475 C1            1 RES     
   20216 C1         817.0204  -952.8462  -617.7320 C1            1 RES     
   20217 C1         817.6939  -951.6505  -618.0788 C1            1 RES     
   20218 S2         817.1963  -950.4001  -617.0426 S2            1 RES     
   20219 H3         813.7584  -953.4645  -613.1875 H3            1 RES     
   20220 H3         817.1461  -953.7904  -618.2471 H3            1 RES     
   20221 N4         819.3755  -952.5569  -619.6336 N4            1 RES     
   20222 C1         820.3597  -952.4576  -620.5759 C1            1 RES     
   20223 C1         820.7147  -951.2152  -621.1151 C1            1 RES     
   20224 C1         820.0392  -950.0856  -620.6704 C1            1 RES     
   20225 N4         820.2829  -948.8357  -621.1349 N4            1 RES     
   20226 S2         819.2033  -947.9262  -620.2776 S2            1 RES     
   20227 N4         818.4318  -949.0319  -619.3230 N4            1 RES     
   20228 C1         819.0300  -950.2003  -619.6760 C1            1 RES     
   20229 C1         818.7025  -951.4694  -619.1518 C1            1 RES     
   20230 H5         820.8774  -953.3488  -620.9065 H5            1 RES     
   20231 C0         813.8941  -953.7530  -616.7994 C0            1 RES     
   20232 C0         812.7210  -954.4195  -616.0738 C0            1 RES     
   20233 C0         811.4179  -954.5475  -616.8688 C0            1 RES     
   20234 C0         810.7667  -953.2250  -617.3041 C0            1 RES     
   20235 C0         810.6924  -952.1770  -616.1747 C0            1 RES     
   20236 C0         809.7901  -950.9933  -616.5439 C0            1 RES     
   20237 C0         808.3093  -951.3550  -616.3491 C0            1 RES     
   20238 C0         807.3883  -950.2104  -616.7733 C0            1 RES     
   20239 C0         805.9429  -950.5092  -616.3637 C0            1 RES     
   20240 C0         804.8562  -949.6020  -616.9747 C0            1 RES     
   20241 C0         804.9517  -948.0826  -616.7309 C0            1 RES     
   20242 C0         805.9423  -947.3628  -617.6732 C0            1 RES     
   20243 C0         806.0137  -945.8319  -617.5051 C0            1 RES     
   20244 C0         804.9113  -944.9872  -618.1882 C0            1 RES     
   20245 C0         803.4705  -945.1072  -617.6702 C0            1 RES     
   20246 C0         803.3490  -944.8020  -616.1785 C0            1 RES     
   20247 H6         813.5529  -952.7628  -617.1691 H6            1 RES     
   20248 H6         814.1748  -954.3611  -617.6869 H6            1 RES     
   20249 H6         813.0156  -955.4369  -615.8218 H6            1 RES     
   20250 H6         812.4881  -953.8765  -615.1393 H6            1 RES     
   20251 H6         811.5668  -955.1920  -617.7621 H6            1 RES     
   20252 H6         810.6990  -955.0671  -616.1961 H6            1 RES     
   20253 H6         811.3293  -952.7786  -618.1526 H6            1 RES     
   20254 H6         809.7558  -953.4897  -617.6769 H6            1 RES     
   20255 H6         810.3340  -952.6202  -615.2199 H6            1 RES     
   20256 H6         811.7227  -951.7959  -616.0078 H6            1 RES     
   20257 H6         810.0108  -950.6558  -617.5809 H6            1 RES     
   20258 H6         810.0107  -950.1507  -615.8523 H6            1 RES     
   20259 H6         808.0329  -952.2570  -616.9335 H6            1 RES     
   20260 H6         808.1548  -951.5752  -615.2687 H6            1 RES     
   20261 H6         807.7147  -949.2865  -616.2543 H6            1 RES     
   20262 H6         807.4676  -950.0917  -617.8761 H6            1 RES     
   20263 H6         805.6846  -951.5442  -616.6797 H6            1 RES     
   20264 H6         805.8829  -950.4705  -615.2528 H6            1 RES     
   20265 H6         804.7657  -949.7878  -618.0667 H6            1 RES     
   20266 H6         803.9079  -949.9491  -616.5066 H6            1 RES     
   20267 H6         805.1702  -947.8735  -615.6613 H6            1 RES     
   20268 H6         803.9456  -947.7015  -616.9436 H6            1 RES     
   20269 H6         806.9558  -947.7242  -617.4504 H6            1 RES     
   20270 H6         805.7314  -947.6054  -618.7373 H6            1 RES     
   20271 H6         806.9509  -945.5167  -618.0168 H6            1 RES     
   20272 H6         806.1345  -945.5669  -616.4336 H6            1 RES     
   20273 H6         805.2109  -943.9221  -618.0730 H6            1 RES     
   20274 H6         804.9093  -945.2131  -619.2770 H6            1 RES     
   20275 H6         802.8476  -944.3749  -618.2280 H6            1 RES     
   20276 H6         803.0454  -946.0988  -617.9028 H6            1 RES     
   20277 H6         803.7278  -943.7805  -615.9636 H6            1 RES     
   20278 H6         802.2823  -944.8584  -615.8759 H6            1 RES     
   20279 H6         803.9191  -945.5374  -615.5751 H6            1 RES     
   20280 C0         815.8482  -954.8433  -615.3973 C0            1 RES     
   20281 C0         815.2876  -955.4535  -614.0893 C0            1 RES     
   20282 C0         815.8155  -956.8402  -613.6618 C0            1 RES     
   20283 C0         815.2553  -958.0812  -614.4001 C0            1 RES     
   20284 C0         813.7140  -958.0861  -614.4695 C0            1 RES     
   20285 C0         813.0755  -959.4388  -614.8164 C0            1 RES     
   20286 C0         813.0020  -960.3603  -613.5878 C0            1 RES     
   20287 C0         812.2785  -961.6764  -613.9088 C0            1 RES     
   20288 C0         812.0534  -962.4911  -612.6282 C0            1 RES     
   20289 C0         811.5862  -963.9520  -612.8052 C0            1 RES     
   20290 C0         810.2212  -964.2241  -613.4726 C0            1 RES     
   20291 C0         810.2386  -964.1327  -615.0122 C0            1 RES     
   20292 C0         808.9079  -964.4977  -615.7043 C0            1 RES     
   20293 C0         808.5941  -966.0015  -615.9049 C0            1 RES     
   20294 C0         808.3189  -966.8677  -614.6661 C0            1 RES     
   20295 C0         807.1690  -966.3357  -613.8131 C0            1 RES     
   20296 H6         815.8156  -955.5802  -616.2288 H6            1 RES     
   20297 H6         816.9223  -954.6445  -615.1827 H6            1 RES     
   20298 H6         815.5998  -954.7604  -613.2810 H6            1 RES     
   20299 H6         814.1906  -955.4989  -614.0713 H6            1 RES     
   20300 H6         816.9265  -956.8547  -613.6687 H6            1 RES     
   20301 H6         815.4941  -956.9649  -612.6034 H6            1 RES     
   20302 H6         815.6628  -958.1617  -615.4311 H6            1 RES     
   20303 H6         815.6091  -958.9630  -613.8250 H6            1 RES     
   20304 H6         813.2603  -957.7220  -613.5213 H6            1 RES     
   20305 H6         813.4448  -957.3909  -615.2756 H6            1 RES     
   20306 H6         813.5998  -959.9138  -615.6744 H6            1 RES     
   20307 H6         812.0251  -959.2398  -615.1216 H6            1 RES     
   20308 H6         814.0192  -960.5813  -613.2020 H6            1 RES     
   20309 H6         812.4295  -959.8280  -612.7944 H6            1 RES     
   20310 H6         811.2923  -961.4271  -614.3458 H6            1 RES     
   20311 H6         812.8915  -962.2517  -614.6352 H6            1 RES     
   20312 H6         813.0220  -962.5521  -612.0845 H6            1 RES     
   20313 H6         811.3347  -961.9447  -611.9771 H6            1 RES     
   20314 H6         812.3706  -964.5483  -613.3193 H6            1 RES     
   20315 H6         811.5083  -964.3449  -611.7665 H6            1 RES     
   20316 H6         809.4356  -963.5722  -613.0328 H6            1 RES     
   20317 H6         809.9795  -965.2589  -613.1993 H6            1 RES     
   20318 H6         810.4335  -963.0864  -615.2864 H6            1 RES     
   20319 H6         811.0557  -964.7513  -615.4424 H6            1 RES     
   20320 H6         808.9912  -964.1006  -616.7408 H6            1 RES     
   20321 H6         808.0619  -963.9594  -615.2270 H6            1 RES     
   20322 H6         807.6850  -966.0541  -616.5441 H6            1 RES     
   20323 H6         809.4257  -966.4675  -616.4774 H6            1 RES     
   20324 H6         808.0466  -967.8864  -615.0190 H6            1 RES     
   20325 H6         809.2309  -966.9959  -614.0577 H6            1 RES     
   20326 H6         806.2416  -966.2644  -614.4200 H6            1 RES     
   20327 H6         806.9870  -967.0288  -612.9651 H6            1 RES     
   20328 H6         807.4129  -965.3364  -613.3984 H6            1 RES     
   20329 C0         823.6256  -952.3173  -625.4055 C0            1 RES     
   20330 C1         823.0164  -951.6121  -624.1758 C1            1 RES     
   20331 C1         823.7969  -950.4580  -623.6844 C1            1 RES     
   20332 S2         823.5833  -950.4527  -621.8977 S2            1 RES     
   20333 C1         821.9384  -951.0895  -622.2884 C1            1 RES     
   20334 C1         821.9199  -951.8276  -623.4571 C1            1 RES     
   20335 C1         825.0679  -950.7311  -624.3386 C1            1 RES     
   20336 C1         825.0170  -951.6992  -625.2993 C1            1 RES     
   20337 C1         826.2461  -951.8717  -625.9612 C1            1 RES     
   20338 C1         827.2215  -950.9594  -625.4921 C1            1 RES     
   20339 S2         826.5433  -949.9786  -624.2828 S2            1 RES     
   20340 H3         821.1592  -952.5649  -623.6549 H3            1 RES     
   20341 H3         826.4162  -952.6000  -626.7444 H3            1 RES     
   20342 N4         829.2286  -951.9162  -626.5518 N4            1 RES     
   20343 C1         830.5414  -951.9104  -626.9300 C1            1 RES     
   20344 C1         831.3450  -950.7839  -626.7165 C1            1 RES     
   20345 C1         830.7738  -949.6706  -626.1131 C1            1 RES     
   20346 N4         831.4479  -948.5188  -625.8752 N4            1 RES     
   20347 S2         830.2905  -947.5738  -625.1717 S2            1 RES     
   20348 N4         828.9581  -948.5498  -625.1352 N4            1 RES     
   20349 C1         829.4117  -949.6962  -625.7075 C1            1 RES     
   20350 C1         828.6336  -950.8518  -625.9347 C1            1 RES     
   20351 H5         830.9694  -952.7891  -627.3949 H5            1 RES     
   20352 C0         822.9461  -951.8059  -626.7173 C0            1 RES     
   20353 C0         821.4648  -952.1799  -626.8294 C0            1 RES     
   20354 C0         820.7039  -951.5831  -628.0174 C0            1 RES     
   20355 C0         820.6117  -950.0493  -628.0510 C0            1 RES     
   20356 C0         820.2121  -949.4290  -626.6964 C0            1 RES     
   20357 C0         819.8463  -947.9455  -626.8261 C0            1 RES     
   20358 C0         818.4145  -947.7817  -627.3597 C0            1 RES     
   20359 C0         818.0513  -946.3097  -627.5584 C0            1 RES     
   20360 C0         816.5593  -946.1664  -627.8744 C0            1 RES     
   20361 C0         816.0973  -944.7887  -628.3896 C0            1 RES     
   20362 C0         816.3582  -943.5533  -627.5046 C0            1 RES     
   20363 C0         817.7973  -943.0018  -627.6157 C0            1 RES     
   20364 C0         818.0761  -941.7253  -626.7974 C0            1 RES     
   20365 C0         817.6229  -940.3757  -627.4045 C0            1 RES     
   20366 C0         816.1179  -940.1082  -627.5529 C0            1 RES     
   20367 C0         815.3600  -940.2334  -626.2327 C0            1 RES     
   20368 H6         823.0234  -950.6980  -626.7252 H6            1 RES     
   20369 H6         823.4925  -952.1842  -627.6087 H6            1 RES     
   20370 H6         821.3986  -953.2603  -626.9474 H6            1 RES     
   20371 H6         820.9242  -951.8904  -625.9094 H6            1 RES     
   20372 H6         821.1331  -951.9437  -628.9772 H6            1 RES     
   20373 H6         819.6655  -951.9777  -627.9448 H6            1 RES     
   20374 H6         821.5861  -949.6105  -628.3574 H6            1 RES     
   20375 H6         819.8726  -949.8043  -628.8414 H6            1 RES     
   20376 H6         819.3623  -949.9707  -626.2261 H6            1 RES     
   20377 H6         821.0889  -949.5177  -626.0197 H6            1 RES     
   20378 H6         820.5967  -947.4227  -627.4596 H6            1 RES     
   20379 H6         819.8685  -947.4854  -625.8138 H6            1 RES     
   20380 H6         818.2816  -948.3054  -628.3290 H6            1 RES     
   20381 H6         817.7227  -948.2378  -626.6159 H6            1 RES     
   20382 H6         818.2625  -945.7656  -626.6156 H6            1 RES     
   20383 H6         818.6695  -945.9091  -628.3913 H6            1 RES     
   20384 H6         816.2876  -946.8933  -628.6718 H6            1 RES     
   20385 H6         815.9844  -946.4374  -626.9606 H6            1 RES     
   20386 H6         816.5057  -944.5982  -629.4055 H6            1 RES     
   20387 H6         814.9937  -944.8868  -628.4963 H6            1 RES     
   20388 H6         816.0747  -943.7633  -626.4506 H6            1 RES     
   20389 H6         815.6724  -942.7869  -627.8852 H6            1 RES     
   20390 H6         818.4885  -943.7567  -627.2157 H6            1 RES     
   20391 H6         818.0782  -942.8259  -628.6768 H6            1 RES     
   20392 H6         819.1848  -941.6384  -626.7443 H6            1 RES     
   20393 H6         817.7189  -941.8508  -625.7536 H6            1 RES     
   20394 H6         818.0318  -939.5783  -626.7454 H6            1 RES     
   20395 H6         818.0978  -940.2539  -628.4026 H6            1 RES     
   20396 H6         815.9936  -939.0698  -627.9293 H6            1 RES     
   20397 H6         815.6720  -940.7603  -628.3237 H6            1 RES     
   20398 H6         815.7806  -939.5328  -625.4807 H6            1 RES     
   20399 H6         814.2908  -939.9829  -626.3956 H6            1 RES     
   20400 H6         815.4168  -941.2687  -625.8391 H6            1 RES     
   20401 C0         823.7373  -953.8950  -625.3091 C0            1 RES     
   20402 C0         822.5130  -954.6144  -624.6917 C0            1 RES     
   20403 C0         822.4908  -956.1577  -624.7370 C0            1 RES     
   20404 C0         822.1224  -956.8319  -626.0818 C0            1 RES     
   20405 C0         820.8345  -956.2531  -626.7039 C0            1 RES     
   20406 C0         820.1902  -957.1126  -627.8012 C0            1 RES     
   20407 C0         819.3605  -958.2613  -627.2045 C0            1 RES     
   20408 C0         818.6381  -959.0651  -628.2957 C0            1 RES     
   20409 C0         817.6745  -960.0795  -627.6658 C0            1 RES     
   20410 C0         817.0746  -961.1471  -628.6062 C0            1 RES     
   20411 C0         816.1717  -960.6926  -629.7727 C0            1 RES     
   20412 C0         816.9404  -960.1650  -631.0013 C0            1 RES     
   20413 C0         816.0606  -959.7978  -632.2154 C0            1 RES     
   20414 C0         815.5950  -960.9523  -633.1375 C0            1 RES     
   20415 C0         814.5985  -961.9815  -632.5825 C0            1 RES     
   20416 C0         813.3093  -961.3431  -632.0692 C0            1 RES     
   20417 H6         823.9633  -954.2891  -626.3235 H6            1 RES     
   20418 H6         824.5932  -954.1747  -624.6547 H6            1 RES     
   20419 H6         822.5288  -954.3542  -623.6131 H6            1 RES     
   20420 H6         821.5560  -954.2593  -625.0966 H6            1 RES     
   20421 H6         823.4428  -956.5740  -624.3435 H6            1 RES     
   20422 H6         821.6852  -956.4621  -624.0316 H6            1 RES     
   20423 H6         822.9487  -956.7482  -626.8207 H6            1 RES     
   20424 H6         821.9789  -957.9092  -625.8531 H6            1 RES     
   20425 H6         820.0635  -956.0450  -625.9295 H6            1 RES     
   20426 H6         821.1247  -955.3035  -627.1725 H6            1 RES     
   20427 H6         820.9570  -957.4709  -628.5225 H6            1 RES     
   20428 H6         819.4753  -956.4635  -628.3521 H6            1 RES     
   20429 H6         820.0043  -958.9415  -626.6083 H6            1 RES     
   20430 H6         818.5945  -957.8157  -626.5298 H6            1 RES     
   20431 H6         818.0509  -958.3562  -628.9109 H6            1 RES     
   20432 H6         819.3985  -959.5832  -628.9185 H6            1 RES     
   20433 H6         818.2322  -960.6470  -626.8884 H6            1 RES     
   20434 H6         816.8541  -959.5262  -627.1561 H6            1 RES     
   20435 H6         817.8762  -961.8087  -628.9997 H6            1 RES     
   20436 H6         816.4349  -961.7715  -627.9426 H6            1 RES     
   20437 H6         815.4154  -959.9595  -629.4172 H6            1 RES     
   20438 H6         815.6325  -961.5988  -630.0762 H6            1 RES     
   20439 H6         817.4421  -959.2313  -630.7106 H6            1 RES     
   20440 H6         817.7255  -960.8829  -631.3230 H6            1 RES     
   20441 H6         816.7048  -959.1723  -632.8733 H6            1 RES     
   20442 H6         815.2126  -959.1540  -631.8995 H6            1 RES     
   20443 H6         815.1118  -960.4787  -634.0207 H6            1 RES     
   20444 H6         816.4902  -961.4989  -633.5066 H6            1 RES     
   20445 H6         814.3357  -962.6780  -633.4085 H6            1 RES     
   20446 H6         815.0637  -962.6068  -631.8009 H6            1 RES     
   20447 H6         812.8190  -960.7629  -632.8796 H6            1 RES     
   20448 H6         812.6131  -962.1384  -631.7297 H6            1 RES     
   20449 H6         813.5145  -960.6716  -631.2107 H6            1 RES     
   20450 C0         835.6749  -951.5569  -629.6747 C0            1 RES     
   20451 C1         834.7024  -951.0737  -628.5787 C1            1 RES     
   20452 C1         835.3606  -950.4839  -627.3947 C1            1 RES     
   20453 S2         834.3245  -950.9274  -625.9919 S2            1 RES     
   20454 C1         832.9785  -950.7742  -627.1872 C1            1 RES     
   20455 C1         833.3777  -951.0753  -628.4760 C1            1 RES     
   20456 C1         836.7088  -950.9966  -627.5887 C1            1 RES     
   20457 C1         836.9361  -951.5502  -628.8153 C1            1 RES     
   20458 C1         838.2716  -951.9564  -628.9881 C1            1 RES     
   20459 C1         839.0603  -951.6448  -627.8548 C1            1 RES     
   20460 S2         838.0922  -950.8870  -626.6830 S2            1 RES     
   20461 H3         832.6774  -951.3905  -629.2319 H3            1 RES     
   20462 H3         838.6500  -952.4311  -629.8849 H3            1 RES     
   20463 N4         841.0997  -952.9106  -628.4074 N4            1 RES     
   20464 C1         842.4061  -953.2734  -628.2388 C1            1 RES     
   20465 C1         843.2116  -952.6347  -627.2882 C1            1 RES     
   20466 C1         842.6506  -951.6205  -626.5223 C1            1 RES     
   20467 N4         843.3383  -950.9194  -625.5880 N4            1 RES     
   20468 S2         842.1946  -949.8694  -625.0250 S2            1 RES     
   20469 N4         840.8460  -950.2557  -625.8975 N4            1 RES     
   20470 C1         841.2851  -951.2653  -626.6946 C1            1 RES     
   20471 C1         840.5023  -951.9350  -627.6597 C1            1 RES     
   20472 H5         842.8239  -954.0689  -628.8422 H5            1 RES     
   20473 C0         835.8196  -950.4709  -630.7900 C0            1 RES     
   20474 C0         834.5317  -950.2275  -631.5830 C0            1 RES     
   20475 C0         834.5641  -949.0729  -632.5891 C0            1 RES     
   20476 C0         834.7998  -947.6746  -631.9960 C0            1 RES     
   20477 C0         833.9306  -947.3797  -630.7563 C0            1 RES     
   20478 C0         833.9681  -945.8977  -630.3642 C0            1 RES     
   20479 C0         833.0288  -945.0733  -631.2584 C0            1 RES     
   20480 C0         833.0993  -943.5821  -630.9272 C0            1 RES     
   20481 C0         832.0004  -942.8178  -631.6722 C0            1 RES     
   20482 C0         832.1192  -941.2807  -631.6791 C0            1 RES     
   20483 C0         832.1600  -940.5454  -630.3245 C0            1 RES     
   20484 C0         833.5531  -940.5510  -629.6559 C0            1 RES     
   20485 C0         833.6491  -939.7663  -628.3324 C0            1 RES     
   20486 C0         833.8139  -938.2301  -628.4243 C0            1 RES     
   20487 C0         832.6479  -937.4007  -628.9823 C0            1 RES     
   20488 C0         831.3433  -937.6233  -628.2197 C0            1 RES     
   20489 H6         836.1052  -949.5183  -630.2957 H6            1 RES     
   20490 H6         836.6401  -950.7421  -631.4897 H6            1 RES     
   20491 H6         834.3211  -951.1228  -632.1658 H6            1 RES     
   20492 H6         833.6852  -950.0453  -630.8954 H6            1 RES     
   20493 H6         835.3204  -949.2655  -633.3806 H6            1 RES     
   20494 H6         833.5633  -949.0636  -633.0764 H6            1 RES     
   20495 H6         835.8662  -947.5526  -631.7068 H6            1 RES     
   20496 H6         834.5924  -946.9557  -632.8153 H6            1 RES     
   20497 H6         832.8726  -947.6864  -630.9084 H6            1 RES     
   20498 H6         834.3408  -947.9773  -629.9142 H6            1 RES     
   20499 H6         835.0155  -945.5234  -630.3915 H6            1 RES     
   20500 H6         833.5928  -945.7975  -629.3220 H6            1 RES     
   20501 H6         833.2765  -945.2019  -632.3324 H6            1 RES     
   20502 H6         831.9920  -945.4425  -631.0900 H6            1 RES     
   20503 H6         832.9353  -943.4562  -629.8378 H6            1 RES     
   20504 H6         834.1050  -943.2087  -631.2200 H6            1 RES     
   20505 H6         832.0075  -943.1259  -632.7412 H6            1 RES     
   20506 H6         831.0184  -943.1163  -631.2414 H6            1 RES     
   20507 H6         832.9917  -940.9624  -632.2895 H6            1 RES     
   20508 H6         831.2059  -940.9330  -632.2121 H6            1 RES     
   20509 H6         831.3724  -940.9377  -629.6454 H6            1 RES     
   20510 H6         831.9038  -939.5061  -630.5627 H6            1 RES     
   20511 H6         833.8068  -941.5878  -629.3948 H6            1 RES     
   20512 H6         834.3351  -940.1857  -630.3564 H6            1 RES     
   20513 H6         834.5901  -940.1099  -627.8468 H6            1 RES     
   20514 H6         832.8197  -940.0539  -627.6526 H6            1 RES     
   20515 H6         834.0042  -937.8691  -627.3895 H6            1 RES     
   20516 H6         834.7216  -938.0020  -629.0250 H6            1 RES     
   20517 H6         832.9235  -936.3274  -628.8960 H6            1 RES     
   20518 H6         832.5076  -937.5869  -630.0610 H6            1 RES     
   20519 H6         831.4804  -937.3794  -627.1450 H6            1 RES     
   20520 H6         830.5542  -936.9638  -628.6379 H6            1 RES     
   20521 H6         831.0022  -938.6742  -628.3150 H6            1 RES     
   20522 C0         835.4173  -953.0194  -630.2274 C0            1 RES     
   20523 C0         833.9335  -953.3896  -630.4703 C0            1 RES     
   20524 C0         833.6357  -954.7313  -631.1743 C0            1 RES     
   20525 C0         833.8320  -954.7963  -632.7093 C0            1 RES     
   20526 C0         833.1390  -953.6318  -633.4471 C0            1 RES     
   20527 C0         832.9445  -953.8326  -634.9570 C0            1 RES     
   20528 C0         831.7250  -954.7200  -635.2561 C0            1 RES     
   20529 C0         831.4716  -954.8449  -636.7657 C0            1 RES     
   20530 C0         830.1476  -955.5745  -637.0289 C0            1 RES     
   20531 C0         829.8756  -956.0215  -638.4816 C0            1 RES     
   20532 C0         829.7484  -954.9471  -639.5825 C0            1 RES     
   20533 C0         831.0970  -954.4000  -640.0935 C0            1 RES     
   20534 C0         830.9953  -953.3971  -641.2625 C0            1 RES     
   20535 C0         830.8127  -953.9753  -642.6882 C0            1 RES     
   20536 C0         829.4935  -954.6839  -643.0317 C0            1 RES     
   20537 C0         828.2683  -953.8005  -642.8051 C0            1 RES     
   20538 H6         836.0192  -953.1514  -631.1525 H6            1 RES     
   20539 H6         835.7831  -953.7716  -629.4929 H6            1 RES     
   20540 H6         833.4821  -953.4831  -629.4610 H6            1 RES     
   20541 H6         833.3765  -952.6074  -631.0030 H6            1 RES     
   20542 H6         834.1819  -955.5623  -630.6789 H6            1 RES     
   20543 H6         832.5493  -954.9136  -631.0145 H6            1 RES     
   20544 H6         834.9092  -954.8065  -632.9835 H6            1 RES     
   20545 H6         833.3900  -955.7627  -633.0321 H6            1 RES     
   20546 H6         832.1489  -953.3946  -632.9989 H6            1 RES     
   20547 H6         833.7964  -952.7610  -633.3238 H6            1 RES     
   20548 H6         833.8763  -954.2167  -635.4270 H6            1 RES     
   20549 H6         832.7219  -952.8362  -635.3968 H6            1 RES     
   20550 H6         831.8589  -955.7312  -634.8181 H6            1 RES     
   20551 H6         830.8331  -954.2454  -634.7873 H6            1 RES     
   20552 H6         831.4007  -953.8233  -637.1866 H6            1 RES     
   20553 H6         832.3197  -955.3967  -637.2247 H6            1 RES     
   20554 H6         830.1432  -956.5082  -636.4243 H6            1 RES     
   20555 H6         829.3090  -954.9363  -636.6705 H6            1 RES     
   20556 H6         830.6215  -956.7826  -638.7970 H6            1 RES     
   20557 H6         828.8889  -956.5348  -638.4324 H6            1 RES     
   20558 H6         829.0735  -954.1282  -639.2515 H6            1 RES     
   20559 H6         829.2554  -955.4612  -640.4170 H6            1 RES     
   20560 H6         831.5694  -953.8441  -639.2715 H6            1 RES     
   20561 H6         831.7834  -955.2260  -640.3795 H6            1 RES     
   20562 H6         831.9833  -952.8861  -641.3050 H6            1 RES     
   20563 H6         830.2433  -952.6119  -641.0359 H6            1 RES     
   20564 H6         830.9133  -953.1205  -643.3932 H6            1 RES     
   20565 H6         831.6495  -954.6762  -642.9001 H6            1 RES     
   20566 H6         829.5277  -954.9599  -644.1083 H6            1 RES     
   20567 H6         829.3966  -955.6361  -642.4820 H6            1 RES     
   20568 H6         828.3487  -952.8705  -643.4069 H6            1 RES     
   20569 H6         827.3548  -954.3488  -643.1175 H6            1 RES     
   20570 H6         828.1642  -953.5351  -641.7333 H6            1 RES     
   20571 C0         848.1838  -954.0272  -628.4857 C0            1 RES     
   20572 C1         846.9209  -953.5681  -627.7275 C1            1 RES     
   20573 C1         847.0334  -953.6361  -626.2559 C1            1 RES     
   20574 S2         845.3891  -954.0625  -625.6624 S2            1 RES     
   20575 C1         844.8376  -953.0839  -627.0774 C1            1 RES     
   20576 C1         845.7370  -953.1161  -628.1266 C1            1 RES     
   20577 C1         848.1811  -954.5239  -626.1432 C1            1 RES     
   20578 C1         848.8544  -954.7347  -627.3114 C1            1 RES     
   20579 C1         850.0018  -955.5302  -627.1404 C1            1 RES     
   20580 C1         850.1961  -955.8766  -625.7817 C1            1 RES     
   20581 S2         848.9543  -955.1988  -624.8420 S2            1 RES     
   20582 H3         845.4371  -952.9164  -629.1423 H3            1 RES     
   20583 H3         850.6622  -955.8236  -627.9469 H3            1 RES     
   20584 N4         851.9606  -957.5764  -626.0348 N4            1 RES     
   20585 C1         852.9282  -958.4233  -625.5734 C1            1 RES     
   20586 C1         853.2879  -958.4332  -624.2203 C1            1 RES     
   20587 C1         852.6387  -957.5581  -623.3585 C1            1 RES     
   20588 N4         852.9175  -957.4651  -622.0352 N4            1 RES     
   20589 S2         851.8732  -956.2858  -621.5387 S2            1 RES     
   20590 N4         851.0601  -955.8779  -622.9177 N4            1 RES     
   20591 C1         851.6207  -956.6952  -623.8479 C1            1 RES     
   20592 C1         851.2814  -956.7167  -625.2179 C1            1 RES     
   20593 H5         853.4197  -959.1008  -626.2596 H5            1 RES     
   20594 C0         849.0523  -952.7926  -628.8924 C0            1 RES     
   20595 C0         848.3757  -951.8739  -629.9148 C0            1 RES     
   20596 C0         849.1093  -950.5698  -630.2429 C0            1 RES     
   20597 C0         849.2998  -949.5955  -629.0695 C0            1 RES     
   20598 C0         848.0201  -949.3828  -628.2350 C0            1 RES     
   20599 C0         848.1532  -948.2029  -627.2645 C0            1 RES     
   20600 C0         847.9366  -946.8686  -627.9954 C0            1 RES     
   20601 C0         848.1290  -945.6748  -627.0594 C0            1 RES     
   20602 C0         847.6927  -944.3794  -627.7508 C0            1 RES     
   20603 C0         848.0970  -943.0630  -627.0573 C0            1 RES     
   20604 C0         847.6275  -942.8274  -625.6078 C0            1 RES     
   20605 C0         848.4998  -943.5377  -624.5485 C0            1 RES     
   20606 C0         848.1021  -943.2693  -623.0834 C0            1 RES     
   20607 C0         848.5862  -941.9457  -622.4438 C0            1 RES     
   20608 C0         848.0157  -940.6232  -622.9772 C0            1 RES     
   20609 C0         846.4904  -940.5680  -622.9173 C0            1 RES     
   20610 H6         849.2460  -952.2010  -627.9727 H6            1 RES     
   20611 H6         850.0368  -953.1256  -629.2877 H6            1 RES     
   20612 H6         848.2997  -952.4162  -630.8559 H6            1 RES     
   20613 H6         847.3575  -951.6064  -629.5771 H6            1 RES     
   20614 H6         850.0980  -950.7830  -630.7040 H6            1 RES     
   20615 H6         848.4868  -950.0528  -631.0074 H6            1 RES     
   20616 H6         850.0986  -949.9622  -628.3889 H6            1 RES     
   20617 H6         849.6537  -948.6437  -629.5164 H6            1 RES     
   20618 H6         847.1269  -949.2225  -628.8778 H6            1 RES     
   20619 H6         847.8524  -950.3082  -627.6434 H6            1 RES     
   20620 H6         849.1361  -948.2467  -626.7451 H6            1 RES     
   20621 H6         847.3530  -948.2842  -626.4963 H6            1 RES     
   20622 H6         848.6372  -946.7565  -628.8487 H6            1 RES     
   20623 H6         846.8962  -946.8658  -628.3920 H6            1 RES     
   20624 H6         847.4922  -945.8245  -626.1641 H6            1 RES     
   20625 H6         849.2029  -945.6260  -626.7753 H6            1 RES     
   20626 H6         848.1500  -944.3393  -628.7643 H6            1 RES     
   20627 H6         846.5876  -944.4113  -627.8801 H6            1 RES     
   20628 H6         849.1981  -942.9208  -627.1082 H6            1 RES     
   20629 H6         847.6374  -942.2656  -627.6833 H6            1 RES     
   20630 H6         846.5519  -943.0862  -625.5006 H6            1 RES     
   20631 H6         847.7242  -941.7458  -625.4549 H6            1 RES     
   20632 H6         848.3905  -944.6229  -624.6821 H6            1 RES     
   20633 H6         849.5756  -943.2944  -624.6869 H6            1 RES     
   20634 H6         848.6090  -944.0593  -622.4847 H6            1 RES     
   20635 H6         847.0107  -943.4207  -622.9463 H6            1 RES     
   20636 H6         848.3247  -942.0009  -621.3640 H6            1 RES     
   20637 H6         849.6951  -941.8988  -622.5123 H6            1 RES     
   20638 H6         848.4195  -939.8013  -622.3472 H6            1 RES     
   20639 H6         848.3750  -940.4189  -624.0005 H6            1 RES     
   20640 H6         846.1415  -940.7191  -621.8739 H6            1 RES     
   20641 H6         846.1429  -939.5744  -623.2699 H6            1 RES     
   20642 H6         846.0393  -941.3436  -623.5691 H6            1 RES     
   20643 C0         847.9427  -955.0622  -629.6611 C0            1 RES     
   20644 C0         846.7159  -954.7760  -630.5616 C0            1 RES     
   20645 C0         846.5363  -955.6449  -631.8253 C0            1 RES     
   20646 C0         847.4256  -955.3221  -633.0516 C0            1 RES     
   20647 C0         847.4115  -953.8234  -633.4182 C0            1 RES     
   20648 C0         847.9277  -953.4852  -634.8243 C0            1 RES     
   20649 C0         846.8535  -953.7357  -635.8955 C0            1 RES     
   20650 C0         847.3339  -953.3091  -637.2905 C0            1 RES     
   20651 C0         846.1838  -953.3926  -638.3027 C0            1 RES     
   20652 C0         846.5583  -953.2605  -639.7948 C0            1 RES     
   20653 C0         847.1849  -951.9410  -640.2938 C0            1 RES     
   20654 C0         848.6907  -951.7997  -639.9911 C0            1 RES     
   20655 C0         849.3577  -950.5326  -640.5676 C0            1 RES     
   20656 C0         849.7703  -950.5569  -642.0606 C0            1 RES     
   20657 C0         848.6668  -950.6001  -643.1287 C0            1 RES     
   20658 C0         847.6810  -949.4393  -643.0114 C0            1 RES     
   20659 H6         848.8748  -955.1262  -630.2633 H6            1 RES     
   20660 H6         847.7584  -956.0763  -629.2407 H6            1 RES     
   20661 H6         845.8285  -954.9909  -629.9310 H6            1 RES     
   20662 H6         846.6459  -953.7250  -630.8719 H6            1 RES     
   20663 H6         846.6055  -956.7242  -631.5706 H6            1 RES     
   20664 H6         845.4940  -955.4564  -632.1673 H6            1 RES     
   20665 H6         848.4773  -955.6437  -632.8897 H6            1 RES     
   20666 H6         847.0133  -955.9192  -633.8924 H6            1 RES     
   20667 H6         846.3955  -953.3844  -633.3074 H6            1 RES     
   20668 H6         848.0852  -953.3307  -632.7047 H6            1 RES     
   20669 H6         848.8757  -954.0263  -635.0370 H6            1 RES     
   20670 H6         848.1413  -952.3944  -634.8443 H6            1 RES     
   20671 H6         846.5620  -954.8067  -635.9156 H6            1 RES     
   20672 H6         845.9578  -953.1290  -635.6305 H6            1 RES     
   20673 H6         847.6733  -952.2571  -637.2287 H6            1 RES     
   20674 H6         848.1723  -953.9709  -637.5962 H6            1 RES     
   20675 H6         845.7092  -954.3937  -638.2024 H6            1 RES     
   20676 H6         845.4184  -952.6284  -638.0399 H6            1 RES     
   20677 H6         847.1998  -954.1121  -640.1084 H6            1 RES     
   20678 H6         845.5898  -953.3681  -640.3332 H6            1 RES     
   20679 H6         846.6080  -951.0688  -639.9168 H6            1 RES     
   20680 H6         847.0615  -951.9694  -641.3837 H6            1 RES     
   20681 H6         848.8105  -951.7232  -638.9012 H6            1 RES     
   20682 H6         849.2546  -952.6956  -640.3297 H6            1 RES     
   20683 H6         850.3236  -950.4295  -640.0241 H6            1 RES     
   20684 H6         848.7582  -949.6313  -640.3195 H6            1 RES     
   20685 H6         850.3599  -949.6311  -642.2427 H6            1 RES     
   20686 H6         850.4519  -951.4191  -642.2297 H6            1 RES     
   20687 H6         849.1571  -950.5394  -644.1249 H6            1 RES     
   20688 H6         848.1356  -951.5675  -643.1155 H6            1 RES     
   20689 H6         848.2187  -948.4700  -643.0833 H6            1 RES     
   20690 H6         846.9414  -949.4980  -643.8373 H6            1 RES     
   20691 H6         847.1312  -949.4824  -642.0492 H6            1 RES     
   20692 C0         857.8479  -961.1256  -623.9908 C0            1 RES     
   20693 C1         856.4932  -960.4824  -623.6283 C1            1 RES     
   20694 C1         855.8727  -961.0167  -622.3985 C1            1 RES     
   20695 S2         854.0977  -960.9678  -622.6895 S2            1 RES     
   20696 C1         854.4923  -959.4855  -623.6441 C1            1 RES     
   20697 C1         855.7580  -959.5335  -624.1979 C1            1 RES     
   20698 C1         856.6290  -962.2530  -622.2653 C1            1 RES     
   20699 C1         857.7232  -962.3411  -623.0762 C1            1 RES     
   20700 C1         858.4692  -963.5128  -622.8554 C1            1 RES     
   20701 C1         857.9187  -964.2897  -621.8080 C1            1 RES     
   20702 S2         856.5378  -963.5144  -621.1944 S2            1 RES     
   20703 H3         856.0257  -958.9486  -625.0625 H3            1 RES     
   20704 H3         859.3633  -963.7757  -623.4069 H3            1 RES     
   20705 N4         859.2200  -966.3607  -622.0987 N4            1 RES     
   20706 C1         859.6633  -967.5978  -621.7251 C1            1 RES     
   20707 C1         859.3225  -968.1362  -620.4784 C1            1 RES     
   20708 C1         858.5248  -967.3800  -619.6288 C1            1 RES     
   20709 N4         858.1491  -967.7892  -618.3923 N4            1 RES     
   20710 S2         857.2469  -966.5126  -617.8594 S2            1 RES     
   20711 N4         857.2891  -965.4495  -619.1232 N4            1 RES     
   20712 C1         858.0549  -966.1021  -620.0371 C1            1 RES     
   20713 C1         858.4151  -965.5940  -621.3038 C1            1 RES     
   20714 H5         860.2805  -968.1735  -622.4027 H5            1 RES     
   20715 C0         859.0266  -960.2326  -623.4836 C0            1 RES     
   20716 C0         859.1147  -958.8732  -624.1845 C0            1 RES     
   20717 C0         860.1537  -957.8926  -623.6318 C0            1 RES     
   20718 C0         859.9455  -957.4471  -622.1756 C0            1 RES     
   20719 C0         858.4919  -957.0377  -621.8613 C0            1 RES     
   20720 C0         858.3716  -956.3300  -620.5062 C0            1 RES     
   20721 C0         858.7953  -954.8573  -620.6208 C0            1 RES     
   20722 C0         858.7449  -954.1487  -619.2667 C0            1 RES     
   20723 C0         858.9540  -952.6417  -619.4453 C0            1 RES     
   20724 C0         859.2249  -951.8309  -618.1622 C0            1 RES     
   20725 C0         858.1757  -951.8781  -617.0335 C0            1 RES     
   20726 C0         858.2781  -953.1358  -616.1417 C0            1 RES     
   20727 C0         857.2892  -953.1849  -614.9600 C0            1 RES     
   20728 C0         857.6557  -952.3808  -613.6892 C0            1 RES     
   20729 C0         857.6795  -950.8475  -613.7745 C0            1 RES     
   20730 C0         856.3553  -950.2596  -614.2581 C0            1 RES     
   20731 H6         858.8679  -960.0516  -622.3994 H6            1 RES     
   20732 H6         859.9939  -960.7698  -623.5935 H6            1 RES     
   20733 H6         859.3940  -959.0473  -625.2224 H6            1 RES     
   20734 H6         858.1332  -958.3647  -624.1625 H6            1 RES     
   20735 H6         861.1794  -958.3061  -623.7436 H6            1 RES     
   20736 H6         860.0867  -956.9837  -624.2710 H6            1 RES     
   20737 H6         860.2329  -958.2630  -621.4774 H6            1 RES     
   20738 H6         860.6476  -956.6041  -622.0101 H6            1 RES     
   20739 H6         858.0655  -956.3809  -622.6509 H6            1 RES     
   20740 H6         857.8853  -957.9681  -621.8278 H6            1 RES     
   20741 H6         858.9566  -956.8804  -619.7364 H6            1 RES     
   20742 H6         857.3031  -956.3358  -620.1973 H6            1 RES     
   20743 H6         859.8251  -954.7628  -621.0234 H6            1 RES     
   20744 H6         858.0944  -954.3582  -621.3275 H6            1 RES     
   20745 H6         857.7424  -954.3121  -618.8221 H6            1 RES     
   20746 H6         859.5384  -954.5813  -618.6189 H6            1 RES     
   20747 H6         859.8379  -952.4749  -620.1000 H6            1 RES     
   20748 H6         858.0631  -952.2284  -619.9692 H6            1 RES     
   20749 H6         860.2200  -952.0923  -617.7418 H6            1 RES     
   20750 H6         859.2857  -950.7745  -618.5078 H6            1 RES     
   20751 H6         857.1528  -951.7456  -617.4478 H6            1 RES     
   20752 H6         858.3960  -951.0031  -616.4102 H6            1 RES     
   20753 H6         858.0371  -954.0150  -616.7552 H6            1 RES     
   20754 H6         859.3130  -953.2729  -615.7598 H6            1 RES     
   20755 H6         857.2834  -954.2439  -614.6166 H6            1 RES     
   20756 H6         856.2594  -952.9605  -615.3094 H6            1 RES     
   20757 H6         856.9047  -952.6521  -612.9148 H6            1 RES     
   20758 H6         858.6474  -952.7241  -613.3212 H6            1 RES     
   20759 H6         857.8842  -950.4545  -612.7552 H6            1 RES     
   20760 H6         858.5163  -950.4970  -614.4030 H6            1 RES     
   20761 H6         855.5282  -950.5728  -613.5864 H6            1 RES     
   20762 H6         856.4196  -949.1513  -614.2527 H6            1 RES     
   20763 H6         856.1295  -950.5881  -615.2930 H6            1 RES     
   20764 C0         858.0020  -961.6057  -625.4930 C0            1 RES     
   20765 C0         857.4375  -960.6400  -626.5637 C0            1 RES     
   20766 C0         857.7187  -960.9698  -628.0458 C0            1 RES     
   20767 C0         859.1295  -960.6483  -628.5982 C0            1 RES     
   20768 C0         859.5844  -959.2116  -628.2673 C0            1 RES     
   20769 C0         860.7645  -958.6874  -629.0981 C0            1 RES     
   20770 C0         860.3079  -958.2011  -630.4834 C0            1 RES     
   20771 C0         861.4693  -957.5890  -631.2804 C0            1 RES     
   20772 C0         860.9520  -956.9449  -632.5735 C0            1 RES     
   20773 C0         862.0118  -956.5257  -633.6151 C0            1 RES     
   20774 C0         863.0438  -955.4421  -633.2363 C0            1 RES     
   20775 C0         864.2163  -955.9561  -632.3760 C0            1 RES     
   20776 C0         865.3099  -954.9108  -632.0691 C0            1 RES     
   20777 C0         866.3723  -954.6434  -633.1643 C0            1 RES     
   20778 C0         865.9294  -953.9642  -634.4693 C0            1 RES     
   20779 C0         865.2550  -952.6136  -634.2367 C0            1 RES     
   20780 H6         859.0757  -961.8252  -625.6785 H6            1 RES     
   20781 H6         857.4457  -962.5578  -625.6451 H6            1 RES     
   20782 H6         856.3341  -960.6915  -626.4575 H6            1 RES     
   20783 H6         857.7304  -959.5948  -626.3977 H6            1 RES     
   20784 H6         857.4461  -962.0233  -628.2703 H6            1 RES     
   20785 H6         857.0261  -960.3221  -628.6288 H6            1 RES     
   20786 H6         859.8902  -961.3639  -628.2177 H6            1 RES     
   20787 H6         859.0621  -960.7777  -629.6992 H6            1 RES     
   20788 H6         858.7466  -958.4856  -628.3591 H6            1 RES     
   20789 H6         859.9161  -959.2324  -627.2208 H6            1 RES     
   20790 H6         861.5728  -959.4487  -629.1590 H6            1 RES     
   20791 H6         861.1694  -957.7961  -628.5713 H6            1 RES     
   20792 H6         859.8594  -959.0347  -631.0635 H6            1 RES     
   20793 H6         859.5322  -957.4163  -630.3322 H6            1 RES     
   20794 H6         861.9353  -956.8019  -630.6566 H6            1 RES     
   20795 H6         862.2047  -958.3896  -631.5099 H6            1 RES     
   20796 H6         860.3026  -957.6853  -633.0908 H6            1 RES     
   20797 H6         860.3196  -956.0679  -632.3092 H6            1 RES     
   20798 H6         862.5453  -957.4197  -634.0039 H6            1 RES     
   20799 H6         861.4188  -956.1086  -634.4600 H6            1 RES     
   20800 H6         862.5393  -954.5721  -632.7628 H6            1 RES     
   20801 H6         863.4537  -955.1013  -634.1954 H6            1 RES     
   20802 H6         863.8128  -956.2532  -631.3978 H6            1 RES     
   20803 H6         864.6867  -956.8536  -632.8327 H6            1 RES     
   20804 H6         865.8974  -955.3324  -631.2228 H6            1 RES     
   20805 H6         864.8532  -953.9690  -631.6980 H6            1 RES     
   20806 H6         867.1446  -953.9874  -632.7048 H6            1 RES     
   20807 H6         866.8691  -955.6039  -633.4233 H6            1 RES     
   20808 H6         866.8375  -953.7963  -635.0888 H6            1 RES     
   20809 H6         865.2798  -954.6286  -635.0650 H6            1 RES     
   20810 H6         865.9385  -951.9327  -633.6864 H6            1 RES     
   20811 H6         865.0049  -952.1523  -635.2151 H6            1 RES     
   20812 H6         864.3157  -952.7342  -633.6595 H6            1 RES     
   20813 C0         862.5943  -972.2464  -619.7731 C0            1 RES     
   20814 C1         861.3859  -971.2905  -619.6931 C1            1 RES     
   20815 C1         860.1625  -971.8979  -619.1299 C1            1 RES     
   20816 S2         858.7909  -971.1210  -619.9976 S2            1 RES     
   20817 C1         859.8738  -969.6749  -620.0111 C1            1 RES     
   20818 C1         861.2132  -970.0163  -620.0278 C1            1 RES     
   20819 C1         860.5059  -973.3051  -619.2711 C1            1 RES     
   20820 C1         861.8136  -973.5436  -619.5804 C1            1 RES     
   20821 C1         862.1189  -974.9159  -619.6254 C1            1 RES     
   20822 C1         860.9954  -975.7094  -619.2911 C1            1 RES     
   20823 S2         859.6702  -974.7012  -618.9565 S2            1 RES     
   20824 H3         861.9697  -969.3429  -620.3960 H3            1 RES     
   20825 H3         863.0972  -975.3121  -619.8676 H3            1 RES     
   20826 N4         861.8459  -977.9280  -619.9404 N4            1 RES     
   20827 C1         861.8061  -979.2924  -619.9973 C1            1 RES     
   20828 C1         860.8134  -980.0106  -619.3197 C1            1 RES     
   20829 C1         859.8711  -979.3016  -618.5852 C1            1 RES     
   20830 N4         858.8785  -979.8899  -617.8737 N4            1 RES     
   20831 S2         858.0995  -978.5899  -617.2173 S2            1 RES     
   20832 N4         858.9469  -977.2943  -617.7940 N4            1 RES     
   20833 C1         859.9126  -977.8813  -618.5493 C1            1 RES     
   20834 C1         860.9256  -977.1910  -619.2492 C1            1 RES     
   20835 H5         862.5465  -979.8267  -620.5784 H5            1 RES     
   20836 C0         863.5351  -972.0373  -618.5422 C0            1 RES     
   20837 C0         864.2103  -970.6625  -618.5101 C0            1 RES     
   20838 C0         865.0268  -970.3385  -617.2551 C0            1 RES     
   20839 C0         864.2390  -970.2977  -615.9360 C0            1 RES     
   20840 C0         862.9235  -969.4980  -616.0317 C0            1 RES     
   20841 C0         862.3103  -969.2279  -614.6524 C0            1 RES     
   20842 C0         863.0147  -968.0482  -613.9641 C0            1 RES     
   20843 C0         862.4620  -967.8026  -612.5596 C0            1 RES     
   20844 C0         863.0198  -966.4954  -611.9881 C0            1 RES     
   20845 C0         862.7963  -966.2559  -610.4815 C0            1 RES     
   20846 C0         861.3488  -966.2469  -609.9506 C0            1 RES     
   20847 C0         860.7653  -967.6576  -609.7119 C0            1 RES     
   20848 C0         859.3439  -967.6878  -609.1158 C0            1 RES     
   20849 C0         859.2067  -967.4856  -607.5875 C0            1 RES     
   20850 C0         859.5664  -966.1150  -606.9951 C0            1 RES     
   20851 C0         858.7779  -964.9699  -607.6277 C0            1 RES     
   20852 H6         862.9161  -972.1387  -617.6257 H6            1 RES     
   20853 H6         864.3115  -972.8325  -618.5093 H6            1 RES     
   20854 H6         864.9118  -970.6127  -619.3413 H6            1 RES     
   20855 H6         863.4581  -969.8615  -618.6331 H6            1 RES     
   20856 H6         865.8782  -971.0452  -617.1497 H6            1 RES     
   20857 H6         865.4520  -969.3231  -617.4207 H6            1 RES     
   20858 H6         863.9925  -971.3288  -615.6015 H6            1 RES     
   20859 H6         864.9253  -969.8582  -615.1831 H6            1 RES     
   20860 H6         863.0636  -968.5297  -616.5604 H6            1 RES     
   20861 H6         862.2069  -970.1081  -616.6223 H6            1 RES     
   20862 H6         862.3362  -970.1543  -614.0366 H6            1 RES     
   20863 H6         861.2464  -968.9340  -614.7891 H6            1 RES     
   20864 H6         864.1075  -968.2222  -613.8811 H6            1 RES     
   20865 H6         862.8493  -967.1435  -614.5917 H6            1 RES     
   20866 H6         861.3590  -967.7118  -612.6273 H6            1 RES     
   20867 H6         862.7477  -968.6651  -611.9186 H6            1 RES     
   20868 H6         864.1224  -966.4780  -612.1361 H6            1 RES     
   20869 H6         862.5877  -965.6509  -612.5705 H6            1 RES     
   20870 H6         863.3966  -966.9738  -609.8820 H6            1 RES     
   20871 H6         863.2192  -965.2434  -610.2945 H6            1 RES     
   20872 H6         860.6966  -965.6345  -610.6102 H6            1 RES     
   20873 H6         861.4098  -965.7380  -608.9811 H6            1 RES     
   20874 H6         860.6811  -968.1655  -610.6826 H6            1 RES     
   20875 H6         861.4424  -968.2689  -609.0766 H6            1 RES     
   20876 H6         858.9686  -968.7221  -609.2857 H6            1 RES     
   20877 H6         858.6726  -967.0109  -609.6851 H6            1 RES     
   20878 H6         858.1405  -967.6790  -607.3364 H6            1 RES     
   20879 H6         859.8133  -968.2591  -607.0675 H6            1 RES     
   20880 H6         859.3308  -966.1426  -605.9092 H6            1 RES     
   20881 H6         860.6517  -965.9258  -607.0603 H6            1 RES     
   20882 H6         857.6874  -965.1424  -607.5074 H6            1 RES     
   20883 H6         859.0461  -964.0162  -607.1269 H6            1 RES     
   20884 H6         859.0153  -964.8729  -608.7066 H6            1 RES     
   20885 C0         863.3510  -972.2844  -621.1648 C0            1 RES     
   20886 C0         863.5674  -970.9102  -621.8448 C0            1 RES     
   20887 C0         864.4526  -970.8678  -623.1093 C0            1 RES     
   20888 C0         865.9876  -970.9363  -622.9144 C0            1 RES     
   20889 C0         866.4986  -969.9309  -621.8615 C0            1 RES     
   20890 C0         868.0086  -969.6541  -621.8947 C0            1 RES     
   20891 C0         868.3745  -968.6501  -623.0002 C0            1 RES     
   20892 C0         869.8694  -968.2988  -622.9746 C0            1 RES     
   20893 C0         870.1699  -967.1604  -623.9586 C0            1 RES     
   20894 C0         871.6572  -966.8704  -624.2549 C0            1 RES     
   20895 C0         872.5709  -966.4017  -623.1025 C0            1 RES     
   20896 C0         873.0637  -967.5369  -622.1820 C0            1 RES     
   20897 C0         874.0571  -967.1033  -621.0829 C0            1 RES     
   20898 C0         875.5427  -966.9325  -621.4873 C0            1 RES     
   20899 C0         875.9195  -965.7868  -622.4391 C0            1 RES     
   20900 C0         875.4936  -964.4162  -621.9164 C0            1 RES     
   20901 H6         864.3165  -972.8157  -621.0201 H6            1 RES     
   20902 H6         862.7619  -972.8775  -621.9000 H6            1 RES     
   20903 H6         862.5616  -970.5841  -622.1815 H6            1 RES     
   20904 H6         863.9423  -970.1429  -621.1545 H6            1 RES     
   20905 H6         864.1214  -971.6327  -623.8440 H6            1 RES     
   20906 H6         864.2642  -969.8713  -623.5681 H6            1 RES     
   20907 H6         866.3179  -971.9580  -622.6272 H6            1 RES     
   20908 H6         866.4310  -970.7018  -623.9053 H6            1 RES     
   20909 H6         865.9663  -968.9568  -621.9334 H6            1 RES     
   20910 H6         866.2783  -970.3784  -620.8833 H6            1 RES     
   20911 H6         868.5819  -970.6037  -621.9749 H6            1 RES     
   20912 H6         868.2770  -969.1698  -620.9307 H6            1 RES     
   20913 H6         868.1054  -969.0518  -623.9995 H6            1 RES     
   20914 H6         867.7906  -967.7183  -622.8232 H6            1 RES     
   20915 H6         870.1234  -967.9574  -621.9526 H6            1 RES     
   20916 H6         870.4531  -969.2068  -623.2377 H6            1 RES     
   20917 H6         869.7169  -967.4250  -624.9396 H6            1 RES     
   20918 H6         869.6727  -966.2327  -623.5965 H6            1 RES     
   20919 H6         872.1260  -967.7403  -624.7634 H6            1 RES     
   20920 H6         871.6344  -966.0368  -624.9925 H6            1 RES     
   20921 H6         872.0818  -965.5885  -622.5235 H6            1 RES     
   20922 H6         873.4468  -965.9679  -623.6011 H6            1 RES     
   20923 H6         872.1926  -967.9400  -621.6466 H6            1 RES     
   20924 H6         873.5103  -968.3669  -622.7712 H6            1 RES     
   20925 H6         874.0736  -967.9393  -620.3481 H6            1 RES     
   20926 H6         873.6718  -966.2140  -620.5406 H6            1 RES     
   20927 H6         876.1121  -966.7704  -620.5454 H6            1 RES     
   20928 H6         875.9051  -967.8860  -621.9302 H6            1 RES     
   20929 H6         877.0260  -965.7876  -622.5487 H6            1 RES     
   20930 H6         875.5186  -965.9611  -623.4526 H6            1 RES     
   20931 H6         875.9484  -964.2264  -620.9211 H6            1 RES     
   20932 H6         875.8369  -963.6295  -622.6205 H6            1 RES     
   20933 H6         874.3896  -964.3498  -621.8331 H6            1 RES     
   20934 C0         862.4782  -985.0428  -619.2959 C0            1 RES     
   20935 C1         861.5911  -983.7809  -619.2628 C1            1 RES     
   20936 C1         860.1559  -984.0366  -619.5024 C1            1 RES     
   20937 S2         859.5471  -982.5943  -620.3895 S2            1 RES     
   20938 C1         860.7625  -981.7084  -619.3884 C1            1 RES     
   20939 C1         861.8513  -982.4940  -619.0591 C1            1 RES     
   20940 C1         860.2435  -985.3632  -620.0944 C1            1 RES     
   20941 C1         861.4650  -985.9602  -619.9749 C1            1 RES     
   20942 C1         861.4808  -987.2705  -620.4862 C1            1 RES     
   20943 C1         860.2043  -987.6596  -620.9582 C1            1 RES     
   20944 S2         859.1056  -986.3838  -620.7347 S2            1 RES     
   20945 H3         862.8063  -982.0670  -618.8004 H3            1 RES     
   20946 H3         862.3574  -987.9062  -620.4986 H3            1 RES     
   20947 N4         860.8113  -989.7383  -622.1317 N4            1 RES     
   20948 C1         860.5388  -990.9121  -622.7755 C1            1 RES     
   20949 C1         859.2249  -991.3835  -622.8835 C1            1 RES     
   20950 C1         858.2047  -990.6296  -622.3170 C1            1 RES     
   20951 N4         856.8999  -990.9963  -622.3415 N4            1 RES     
   20952 S2         856.1719  -989.7570  -621.5280 S2            1 RES     
   20953 N4         857.4256  -988.7522  -621.1432 N4            1 RES     
   20954 C1         858.4996  -989.4009  -621.6661 C1            1 RES     
   20955 C1         859.8361  -988.9549  -621.5811 C1            1 RES     
   20956 H5         861.3468  -991.4833  -623.2141 H5            1 RES     
   20957 C0         862.7363  -985.5640  -617.8448 C0            1 RES     
   20958 C0         863.5668  -984.6057  -616.9852 C0            1 RES     
   20959 C0         863.7292  -984.9870  -615.5104 C0            1 RES     
   20960 C0         862.4317  -985.0518  -614.6890 C0            1 RES     
   20961 C0         861.5064  -983.8370  -614.9071 C0            1 RES     
   20962 C0         860.3744  -983.7808  -613.8742 C0            1 RES     
   20963 C0         860.8783  -983.1986  -612.5443 C0            1 RES     
   20964 C0         859.7813  -983.1934  -611.4789 C0            1 RES     
   20965 C0         860.2402  -982.4108  -610.2447 C0            1 RES     
   20966 C0         859.3751  -982.5612  -608.9774 C0            1 RES     
   20967 C0         857.8833  -982.1811  -609.0624 C0            1 RES     
   20968 C0         856.9948  -983.2843  -609.6797 C0            1 RES     
   20969 C0         855.4865  -982.9676  -609.7182 C0            1 RES     
   20970 C0         854.6778  -983.1889  -608.4172 C0            1 RES     
   20971 C0         854.9694  -982.2840  -607.2110 C0            1 RES     
   20972 C0         854.8194  -980.7986  -607.5336 C0            1 RES     
   20973 H6         861.7482  -985.6974  -617.3555 H6            1 RES     
   20974 H6         863.2307  -986.5594  -617.8735 H6            1 RES     
   20975 H6         864.5747  -984.5731  -617.3957 H6            1 RES     
   20976 H6         863.1373  -983.5875  -617.0197 H6            1 RES     
   20977 H6         864.2704  -985.9531  -615.4140 H6            1 RES     
   20978 H6         864.3701  -984.1967  -615.0590 H6            1 RES     
   20979 H6         861.8600  -985.9709  -614.9420 H6            1 RES     
   20980 H6         862.7451  -985.1358  -613.6280 H6            1 RES     
   20981 H6         862.0677  -982.8774  -614.8803 H6            1 RES     
   20982 H6         861.0563  -983.9404  -615.9176 H6            1 RES     
   20983 H6         859.9219  -984.7896  -613.7505 H6            1 RES     
   20984 H6         859.5858  -983.0925  -614.2502 H6            1 RES     
   20985 H6         861.7407  -983.7756  -612.1509 H6            1 RES     
   20986 H6         861.2128  -982.1544  -612.7379 H6            1 RES     
   20987 H6         858.8866  -982.6906  -611.8987 H6            1 RES     
   20988 H6         859.5516  -984.2482  -611.2122 H6            1 RES     
   20989 H6         861.2586  -982.7543  -609.9573 H6            1 RES     
   20990 H6         860.3129  -981.3357  -610.5239 H6            1 RES     
   20991 H6         859.4629  -983.5909  -608.5685 H6            1 RES     
   20992 H6         859.8450  -981.8764  -608.2363 H6            1 RES     
   20993 H6         857.7592  -981.2079  -609.5849 H6            1 RES     
   20994 H6         857.5710  -982.0394  -608.0207 H6            1 RES     
   20995 H6         857.2880  -983.4164  -610.7305 H6            1 RES     
   20996 H6         857.1520  -984.2584  -609.1678 H6            1 RES     
   20997 H6         855.0450  -983.6940  -610.4370 H6            1 RES     
   20998 H6         855.3156  -981.9570  -610.1454 H6            1 RES     
   20999 H6         853.6069  -983.0443  -608.6811 H6            1 RES     
   21000 H6         854.7981  -984.2465  -608.0956 H6            1 RES     
   21001 H6         854.2431  -982.5421  -606.4102 H6            1 RES     
   21002 H6         855.9669  -982.4940  -606.7881 H6            1 RES     
   21003 H6         853.7943  -980.5882  -607.9056 H6            1 RES     
   21004 H6         854.9953  -980.2016  -606.6143 H6            1 RES     
   21005 H6         855.5575  -980.4820  -608.2984 H6            1 RES     
   21006 C0         863.7843  -984.9429  -620.1876 C0            1 RES     
   21007 C0         864.5622  -983.6080  -620.0849 C0            1 RES     
   21008 C0         865.9332  -983.5215  -620.7902 C0            1 RES     
   21009 C0         867.1414  -984.1997  -620.0979 C0            1 RES     
   21010 C0         867.2714  -983.8082  -618.6112 C0            1 RES     
   21011 C0         868.6344  -984.1053  -617.9695 C0            1 RES     
   21012 C0         869.6717  -983.0266  -618.3223 C0            1 RES     
   21013 C0         871.0082  -983.2696  -617.6057 C0            1 RES     
   21014 C0         871.9576  -982.0842  -617.8246 C0            1 RES     
   21015 C0         873.4295  -982.2838  -617.4032 C0            1 RES     
   21016 C0         873.7524  -982.5427  -615.9162 C0            1 RES     
   21017 C0         873.5134  -983.9962  -615.4590 C0            1 RES     
   21018 C0         873.9231  -984.2995  -614.0020 C0            1 RES     
   21019 C0         875.4221  -984.5720  -613.7216 C0            1 RES     
   21020 C0         876.4229  -983.4174  -613.8827 C0            1 RES     
   21021 C0         876.0749  -982.2053  -613.0209 C0            1 RES     
   21022 H6         864.4387  -985.8072  -619.9421 H6            1 RES     
   21023 H6         863.5158  -985.0352  -621.2640 H6            1 RES     
   21024 H6         863.9252  -982.8537  -620.5915 H6            1 RES     
   21025 H6         864.7027  -983.2704  -619.0495 H6            1 RES     
   21026 H6         865.8519  -983.8597  -621.8454 H6            1 RES     
   21027 H6         866.1852  -982.4375  -620.8134 H6            1 RES     
   21028 H6         867.0881  -985.3072  -620.1757 H6            1 RES     
   21029 H6         868.0405  -983.8627  -620.6560 H6            1 RES     
   21030 H6         867.0394  -982.7324  -618.4493 H6            1 RES     
   21031 H6         866.5279  -984.4111  -618.0731 H6            1 RES     
   21032 H6         868.9789  -985.1296  -618.2318 H6            1 RES     
   21033 H6         868.4976  -984.0593  -616.8671 H6            1 RES     
   21034 H6         869.8408  -982.9890  -619.4188 H6            1 RES     
   21035 H6         869.2684  -982.0426  -617.9914 H6            1 RES     
   21036 H6         870.8036  -983.3618  -616.5216 H6            1 RES     
   21037 H6         871.4571  -984.2073  -617.9979 H6            1 RES     
   21038 H6         871.9871  -981.8637  -618.9145 H6            1 RES     
   21039 H6         871.5392  -981.1900  -617.3106 H6            1 RES     
   21040 H6         873.9048  -983.0736  -618.0241 H6            1 RES     
   21041 H6         873.9249  -981.3221  -617.6662 H6            1 RES     
   21042 H6         873.2149  -981.8164  -615.2686 H6            1 RES     
   21043 H6         874.8254  -982.3326  -615.8240 H6            1 RES     
   21044 H6         872.4329  -984.1918  -615.5058 H6            1 RES     
   21045 H6         874.0160  -984.7188  -616.1377 H6            1 RES     
   21046 H6         873.4232  -985.2602  -613.7446 H6            1 RES     
   21047 H6         873.5070  -983.5331  -613.3144 H6            1 RES     
   21048 H6         875.4910  -984.9139  -612.6651 H6            1 RES     
   21049 H6         875.7586  -985.4159  -614.3626 H6            1 RES     
   21050 H6         877.4228  -983.7898  -613.5700 H6            1 RES     
   21051 H6         876.5301  -983.1266  -614.9421 H6            1 RES     
   21052 H6         876.0256  -982.4967  -611.9503 H6            1 RES     
   21053 H6         876.8588  -981.4285  -613.1426 H6            1 RES     
   21054 H6         875.1026  -981.7681  -613.3265 H6            1 RES     
   21055 C0         859.6599  -996.4428  -624.4034 C0            1 RES     
   21056 C1         859.1299  -995.0142  -624.1613 C1            1 RES     
   21057 C1         857.9654  -994.6455  -624.9925 C1            1 RES     
   21058 S2         858.1489  -992.8882  -625.3332 S2            1 RES     
   21059 C1         858.8837  -992.8443  -623.6833 C1            1 RES     
   21060 C1         859.5058  -994.0325  -623.3487 C1            1 RES     
   21061 C1         858.0653  -995.6749  -626.0164 C1            1 RES     
   21062 C1         858.9381  -996.6833  -625.7265 C1            1 RES     
   21063 C1         858.9411  -997.6957  -626.7028 C1            1 RES     
   21064 C1         857.9977  -997.4344  -627.7253 C1            1 RES     
   21065 S2         857.1982  -995.9724  -627.3969 S2            1 RES     
   21066 H3         860.2832  -994.0801  -622.6039 H3            1 RES     
   21067 H3         859.5740  -998.5735  -626.6645 H3            1 RES     
   21068 N4         858.6740  -999.1465  -629.3618 N4            1 RES     
   21069 C1         858.5199  -999.8942  -630.4948 C1            1 RES     
   21070 C1         857.3544  -999.7990  -631.2649 C1            1 RES     
   21071 C1         856.3566  -998.9275  -630.8468 C1            1 RES     
   21072 N4         855.1794  -998.7678  -631.4996 N4            1 RES     
   21073 S2         854.4082  -997.6470  -630.5633 S2            1 RES     
   21074 N4         855.4936  -997.3306  -629.3587 N4            1 RES     
   21075 C1         856.5371  -998.1415  -629.6762 C1            1 RES     
   21076 C1         857.7280  -998.2607  -628.9279 C1            1 RES     
   21077 H5         859.3105 -1000.5644  -630.8066 H5            1 RES     
   21078 C0         859.0856  -997.4245  -623.3307 C0            1 RES     
   21079 C0         859.5725  -997.1344  -621.9075 C0            1 RES     
   21080 C0         858.9323  -997.9647  -620.7906 C0            1 RES     
   21081 C0         857.4158  -997.7900  -620.6119 C0            1 RES     
   21082 C0         856.9640  -996.3151  -620.6118 C0            1 RES     
   21083 C0         855.5115  -996.1563  -620.1462 C0            1 RES     
   21084 C0         855.4206  -996.2175  -618.6134 C0            1 RES     
   21085 C0         853.9727  -996.1261  -618.1299 C0            1 RES     
   21086 C0         853.9280  -995.9658  -616.6072 C0            1 RES     
   21087 C0         852.5519  -996.1560  -615.9384 C0            1 RES     
   21088 C0         851.3889  -995.2506  -616.3910 C0            1 RES     
   21089 C0         850.7084  -995.7189  -617.6968 C0            1 RES     
   21090 C0         849.4966  -994.8772  -618.1439 C0            1 RES     
   21091 C0         848.1389  -995.1604  -617.4570 C0            1 RES     
   21092 C0         847.9881  -994.8228  -615.9663 C0            1 RES     
   21093 C0         848.3030  -993.3611  -615.6542 C0            1 RES     
   21094 H6         857.9795  -997.3256  -623.3434 H6            1 RES     
   21095 H6         859.3291  -998.4757  -623.5988 H6            1 RES     
   21096 H6         860.6383  -997.3527  -621.8654 H6            1 RES     
   21097 H6         859.4193  -996.0681  -621.6583 H6            1 RES     
   21098 H6         859.1617  -999.0439  -620.9255 H6            1 RES     
   21099 H6         859.4193  -997.6335  -619.8459 H6            1 RES     
   21100 H6         856.8681  -998.3186  -621.4222 H6            1 RES     
   21101 H6         857.1605  -998.2910  -619.6554 H6            1 RES     
   21102 H6         857.6187  -995.6803  -619.9753 H6            1 RES     
   21103 H6         857.0415  -995.9446  -621.6564 H6            1 RES     
   21104 H6         854.8685  -996.9185  -620.6394 H6            1 RES     
   21105 H6         855.1499  -995.1498  -620.4514 H6            1 RES     
   21106 H6         855.8589  -997.1578  -618.2194 H6            1 RES     
   21107 H6         856.0030  -995.3605  -618.2060 H6            1 RES     
   21108 H6         853.5050  -995.2319  -618.5893 H6            1 RES     
   21109 H6         853.4432  -997.0524  -618.4431 H6            1 RES     
   21110 H6         854.5960  -996.7257  -616.1443 H6            1 RES     
   21111 H6         854.3331  -994.9606  -616.3530 H6            1 RES     
   21112 H6         852.2312  -997.2178  -616.0074 H6            1 RES     
   21113 H6         852.7334  -995.9408  -614.8615 H6            1 RES     
   21114 H6         851.7219  -994.1920  -616.4534 H6            1 RES     
   21115 H6         850.6511  -995.3181  -615.5825 H6            1 RES     
   21116 H6         851.4361  -995.6332  -618.5157 H6            1 RES     
   21117 H6         850.4087  -996.7873  -617.6315 H6            1 RES     
   21118 H6         849.3207  -995.1460  -619.2099 H6            1 RES     
   21119 H6         849.7511  -993.7965  -618.1287 H6            1 RES     
   21120 H6         847.3760  -994.5641  -618.0045 H6            1 RES     
   21121 H6         847.8823  -996.2331  -617.5982 H6            1 RES     
   21122 H6         846.9329  -995.0214  -615.6788 H6            1 RES     
   21123 H6         848.5994  -995.4969  -615.3419 H6            1 RES     
   21124 H6         847.6439  -992.6916  -616.2463 H6            1 RES     
   21125 H6         848.1304  -993.1687  -614.5746 H6            1 RES     
   21126 H6         849.3624  -993.1258  -615.8826 H6            1 RES     
   21127 C0         861.2242  -996.5688  -624.6220 C0            1 RES     
   21128 C0         862.1013  -995.7040  -623.6835 C0            1 RES     
   21129 C0         863.6294  -995.9205  -623.7299 C0            1 RES     
   21130 C0         864.2012  -997.1643  -623.0055 C0            1 RES     
   21131 C0         863.6780  -997.3038  -621.5607 C0            1 RES     
   21132 C0         864.4807  -998.2527  -620.6591 C0            1 RES     
   21133 C0         865.7478  -997.5748  -620.1122 C0            1 RES     
   21134 C0         866.5026  -998.4883  -619.1352 C0            1 RES     
   21135 C0         867.6511  -997.7235  -618.4640 C0            1 RES     
   21136 C0         868.6715  -998.5612  -617.6633 C0            1 RES     
   21137 C0         868.1867  -999.3455  -616.4254 C0            1 RES     
   21138 C0         867.4805 -1000.6766  -616.7545 C0            1 RES     
   21139 C0         867.0757 -1001.5230  -615.5287 C0            1 RES     
   21140 C0         868.1725 -1002.3934  -614.8659 C0            1 RES     
   21141 C0         869.3314 -1001.6916  -614.1414 C0            1 RES     
   21142 C0         868.8573 -1000.7478  -613.0380 C0            1 RES     
   21143 H6         861.4991  -997.6433  -624.5488 H6            1 RES     
   21144 H6         861.4909  -996.2355  -625.6500 H6            1 RES     
   21145 H6         861.9447  -994.6562  -624.0133 H6            1 RES     
   21146 H6         861.7922  -995.7620  -622.6314 H6            1 RES     
   21147 H6         863.9985  -995.8789  -624.7771 H6            1 RES     
   21148 H6         864.0674  -995.0483  -623.1946 H6            1 RES     
   21149 H6         863.9772  -998.1002  -623.5619 H6            1 RES     
   21150 H6         865.3037  -997.0307  -622.9954 H6            1 RES     
   21151 H6         863.6114  -996.3166  -621.0524 H6            1 RES     
   21152 H6         862.6666  -997.7233  -621.6440 H6            1 RES     
   21153 H6         864.7018  -999.2059  -621.1875 H6            1 RES     
   21154 H6         863.8455  -998.4867  -619.7772 H6            1 RES     
   21155 H6         866.4242  -997.2805  -620.9418 H6            1 RES     
   21156 H6         865.4357  -996.6559  -619.5657 H6            1 RES     
   21157 H6         865.7911  -998.8142  -618.3521 H6            1 RES     
   21158 H6         866.8921  -999.3649  -619.6959 H6            1 RES     
   21159 H6         868.2404  -997.2187  -619.2610 H6            1 RES     
   21160 H6         867.2211  -996.9323  -617.8098 H6            1 RES     
   21161 H6         869.2216  -999.2495  -618.3406 H6            1 RES     
   21162 H6         869.4087  -997.8152  -617.2898 H6            1 RES     
   21163 H6         867.5581  -998.6984  -615.7758 H6            1 RES     
   21164 H6         869.1024  -999.5788  -615.8679 H6            1 RES     
   21165 H6         866.5393 -1000.4411  -617.2710 H6            1 RES     
   21166 H6         868.0947 -1001.2985  -617.4411 H6            1 RES     
   21167 H6         866.3375 -1002.2648  -615.9081 H6            1 RES     
   21168 H6         866.5398 -1000.8966  -614.7846 H6            1 RES     
   21169 H6         867.6598 -1003.0316  -614.1124 H6            1 RES     
   21170 H6         868.6029 -1003.0729  -615.6337 H6            1 RES     
   21171 H6         869.9658 -1002.4777  -613.6766 H6            1 RES     
   21172 H6         869.9863 -1001.1620  -614.8548 H6            1 RES     
   21173 H6         868.2465 -1001.3024  -612.2944 H6            1 RES     
   21174 H6         869.7380 -1000.3120  -612.5212 H6            1 RES     
   21175 H6         868.2557  -999.9167  -613.4592 H6            1 RES     
   21176 C0         857.4688 -1003.9787  -634.5225 C0            1 RES     
   21177 C1         857.1773 -1002.5948  -633.9061 C1            1 RES     
   21178 C1         856.6491 -1001.5993  -634.8615 C1            1 RES     
   21179 S2         857.3112 -1000.0139  -634.3267 S2            1 RES     
   21180 C1         857.1603 -1000.7291  -632.6745 C1            1 RES     
   21181 C1         857.3019 -1002.1042  -632.6776 C1            1 RES     
   21182 C1         857.0238 -1002.2435  -636.1116 C1            1 RES     
   21183 C1         857.4364 -1003.5381  -635.9834 C1            1 RES     
   21184 C1         857.7087 -1004.1460  -637.2223 C1            1 RES     
   21185 C1         857.4404 -1003.2697  -638.3011 C1            1 RES     
   21186 S2         856.8832 -1001.7832  -637.6974 S2            1 RES     
   21187 H3         857.6023 -1002.6494  -631.7979 H3            1 RES     
   21188 H3         858.0616 -1005.1636  -637.3341 H3            1 RES     
   21189 N4         858.4687 -1004.5469  -640.1391 N4            1 RES     
   21190 C1         858.7330 -1004.8175  -641.4519 C1            1 RES     
   21191 C1         858.1214 -1004.0813  -642.4738 C1            1 RES     
   21192 C1         857.2366 -1003.0704  -642.1201 C1            1 RES     
   21193 N4         856.5716 -1002.3074  -643.0219 N4            1 RES     
   21194 S2         855.6816 -1001.3116  -642.0503 S2            1 RES     
   21195 N4         856.0968 -1001.7830  -640.5223 N4            1 RES     
   21196 C1         856.9845 -1002.7867  -640.7503 C1            1 RES     
   21197 C1         857.6235 -1003.5470  -639.7472 C1            1 RES     
   21198 H5         859.4287 -1005.6063  -641.7074 H5            1 RES     
   21199 C0         856.2731 -1004.9519  -634.2634 C0            1 RES     
   21200 C0         856.0661 -1005.2925  -632.7842 C0            1 RES     
   21201 C0         854.8222 -1006.1209  -632.4478 C0            1 RES     
   21202 C0         853.4719 -1005.4656  -632.7789 C0            1 RES     
   21203 C0         853.3720 -1003.9981  -632.3144 C0            1 RES     
   21204 C0         851.9364 -1003.4646  -632.3914 C0            1 RES     
   21205 C0         851.1137 -1003.9368  -631.1823 C0            1 RES     
   21206 C0         849.6603 -1003.4698  -631.2717 C0            1 RES     
   21207 C0         848.9253 -1003.7602  -629.9595 C0            1 RES     
   21208 C0         847.3899 -1003.6226  -629.9894 C0            1 RES     
   21209 C0         846.7864 -1002.2652  -630.4021 C0            1 RES     
   21210 C0         846.7367 -1002.0459  -631.9308 C0            1 RES     
   21211 C0         846.0765 -1000.7285  -632.3839 C0            1 RES     
   21212 C0         844.5301 -1000.6852  -632.4318 C0            1 RES     
   21213 C0         843.7539 -1000.7709  -631.1092 C0            1 RES     
   21214 C0         844.1590  -999.6867  -630.1124 C0            1 RES     
   21215 H6         855.3510 -1004.4570  -634.6354 H6            1 RES     
   21216 H6         856.4052 -1005.8904  -634.8449 H6            1 RES     
   21217 H6         856.9164 -1005.8868  -632.4536 H6            1 RES     
   21218 H6         856.0234 -1004.3682  -632.1789 H6            1 RES     
   21219 H6         854.8731 -1007.1181  -632.9362 H6            1 RES     
   21220 H6         854.8521 -1006.2843  -631.3471 H6            1 RES     
   21221 H6         853.2874 -1005.4939  -633.8748 H6            1 RES     
   21222 H6         852.6985 -1006.0964  -632.2943 H6            1 RES     
   21223 H6         853.7520 -1003.8638  -631.2779 H6            1 RES     
   21224 H6         854.0099 -1003.3916  -632.9924 H6            1 RES     
   21225 H6         851.4730 -1003.7579  -633.3595 H6            1 RES     
   21226 H6         851.9685 -1002.3538  -632.3465 H6            1 RES     
   21227 H6         851.1177 -1005.0432  -631.0976 H6            1 RES     
   21228 H6         851.5846 -1003.5123  -630.2670 H6            1 RES     
   21229 H6         849.6535 -1002.3740  -631.4409 H6            1 RES     
   21230 H6         849.1762 -1004.0024  -632.1193 H6            1 RES     
   21231 H6         849.1282 -1004.8114  -629.6569 H6            1 RES     
   21232 H6         849.3463 -1003.0951  -629.1724 H6            1 RES     
   21233 H6         846.9415 -1004.4231  -630.6166 H6            1 RES     
   21234 H6         847.0723 -1003.8160  -628.9403 H6            1 RES     
   21235 H6         847.3075 -1001.4334  -629.8805 H6            1 RES     
   21236 H6         845.7548 -1002.2935  -630.0311 H6            1 RES     
   21237 H6         847.7681 -1001.9948  -632.3063 H6            1 RES     
   21238 H6         846.2408 -1002.8994  -632.4420 H6            1 RES     
   21239 H6         846.3831 -1000.5879  -633.4448 H6            1 RES     
   21240 H6         846.4975  -999.8714  -631.8172 H6            1 RES     
   21241 H6         844.2545  -999.7189  -632.9088 H6            1 RES     
   21242 H6         844.1691 -1001.4974  -633.1000 H6            1 RES     
   21243 H6         842.6741 -1000.6457  -631.3411 H6            1 RES     
   21244 H6         843.8477 -1001.7732  -630.6571 H6            1 RES     
   21245 H6         844.0079  -998.6804  -630.5572 H6            1 RES     
   21246 H6         843.5324  -999.7716  -629.1999 H6            1 RES     
   21247 H6         845.2213  -999.7984  -629.8143 H6            1 RES     
   21248 C0         858.8886 -1004.5968  -634.1863 C0            1 RES     
   21249 C0         859.3594 -1004.4295  -632.7207 C0            1 RES     
   21250 C0         860.6483 -1005.1649  -632.2937 C0            1 RES     
   21251 C0         860.5496 -1006.6855  -632.0163 C0            1 RES     
   21252 C0         859.3836 -1007.0429  -631.0712 C0            1 RES     
   21253 C0         859.4553 -1008.4395  -630.4370 C0            1 RES     
   21254 C0         860.4110 -1008.4644  -629.2328 C0            1 RES     
   21255 C0         860.4126 -1009.8344  -628.5387 C0            1 RES     
   21256 C0         861.2242 -1009.7758  -627.2378 C0            1 RES     
   21257 C0         861.5523 -1011.1239  -626.5602 C0            1 RES     
   21258 C0         860.3925 -1012.0040  -626.0475 C0            1 RES     
   21259 C0         859.6860 -1012.8250  -627.1456 C0            1 RES     
   21260 C0         858.5885 -1013.7856  -626.6400 C0            1 RES     
   21261 C0         859.0415 -1015.1499  -626.0627 C0            1 RES     
   21262 C0         859.8243 -1015.1664  -624.7407 C0            1 RES     
   21263 C0         859.0745 -1014.4846  -623.5980 C0            1 RES     
   21264 H6         858.8799 -1005.6677  -634.4839 H6            1 RES     
   21265 H6         859.6734 -1004.0971  -634.7974 H6            1 RES     
   21266 H6         859.5870 -1003.3497  -632.6036 H6            1 RES     
   21267 H6         858.5805 -1004.6776  -631.9875 H6            1 RES     
   21268 H6         861.4731 -1004.9546  -633.0078 H6            1 RES     
   21269 H6         860.9373 -1004.7120  -631.3187 H6            1 RES     
   21270 H6         860.4416 -1007.2664  -632.9578 H6            1 RES     
   21271 H6         861.5150 -1006.9729  -631.5485 H6            1 RES     
   21272 H6         859.2756 -1006.2964  -630.2537 H6            1 RES     
   21273 H6         858.4755 -1007.0197  -631.6882 H6            1 RES     
   21274 H6         859.7118 -1009.2065  -631.2003 H6            1 RES     
   21275 H6         858.4441 -1008.6740  -630.0389 H6            1 RES     
   21276 H6         861.4443 -1008.2071  -629.5469 H6            1 RES     
   21277 H6         860.0613 -1007.6998  -628.5024 H6            1 RES     
   21278 H6         859.3654 -1010.0930  -628.2893 H6            1 RES     
   21279 H6         860.8436 -1010.5857  -629.2345 H6            1 RES     
   21280 H6         862.2083 -1009.3104  -627.4669 H6            1 RES     
   21281 H6         860.6972 -1009.1126  -626.5158 H6            1 RES     
   21282 H6         862.2133 -1011.7332  -627.2136 H6            1 RES     
   21283 H6         862.1503 -1010.8441  -625.6639 H6            1 RES     
   21284 H6         859.6696 -1011.3943  -625.4632 H6            1 RES     
   21285 H6         860.8649 -1012.7085  -625.3515 H6            1 RES     
   21286 H6         859.1727 -1012.1214  -627.8159 H6            1 RES     
   21287 H6         860.4192 -1013.3964  -627.7548 H6            1 RES     
   21288 H6         857.9932 -1014.0596  -627.5398 H6            1 RES     
   21289 H6         857.8956 -1013.2559  -625.9526 H6            1 RES     
   21290 H6         858.1180 -1015.7483  -625.8986 H6            1 RES     
   21291 H6         859.6449 -1015.6812  -626.8309 H6            1 RES     
   21292 H6         859.9924 -1016.2291  -624.4600 H6            1 RES     
   21293 H6         860.8294 -1014.7278  -624.8661 H6            1 RES     
   21294 H6         858.0879 -1014.9704  -623.4422 H6            1 RES     
   21295 H6         859.6665 -1014.5735  -622.6630 H6            1 RES     
   21296 H6         858.9224 -1013.4070  -623.8115 H6            1 RES     
   21297 C0         858.9633 -1006.8555  -646.9112 C0            1 RES     
   21298 C1         858.6882 -1005.7083  -645.9170 C1            1 RES     
   21299 C1         858.8864 -1004.3550  -646.4757 C1            1 RES     
   21300 S2         859.5064 -1003.3539  -645.1150 S2            1 RES     
   21301 C1         858.4480 -1004.4169  -644.1080 C1            1 RES     
   21302 C1         858.3031 -1005.6821  -644.6456 C1            1 RES     
   21303 C1         859.6796 -1004.6926  -647.6482 C1            1 RES     
   21304 C1         859.7197 -1006.0244  -647.9439 C1            1 RES     
   21305 C1         860.4269 -1006.2960  -649.1291 C1            1 RES     
   21306 C1         860.8834 -1005.1065  -649.7459 C1            1 RES     
   21307 S2         860.4070 -1003.7680  -648.8153 S2            1 RES     
   21308 H3         858.0337 -1006.5323  -644.0406 H3            1 RES     
   21309 H3         860.5845 -1007.2907  -649.5270 H3            1 RES     
   21310 N4         862.3943 -1006.0689  -651.4364 N4            1 RES     
   21311 C1         863.1956 -1006.0178  -652.5418 C1            1 RES     
   21312 C1         863.3037 -1004.8434  -653.2965 C1            1 RES     
   21313 C1         862.5735 -1003.7317  -652.8954 C1            1 RES     
   21314 N4         862.5836 -1002.5496  -653.5587 N4            1 RES     
   21315 S2         861.5507 -1001.6312  -652.6546 S2            1 RES     
   21316 N4         861.0840 -1002.6490  -651.4399 N4            1 RES     
   21317 C1         861.7580 -1003.7925  -651.7328 C1            1 RES     
   21318 C1         861.6777 -1004.9926  -650.9940 C1            1 RES     
   21319 H5         863.7600 -1006.8932  -652.8359 H5            1 RES     
   21320 C0         857.6258 -1007.3548  -647.5484 C0            1 RES     
   21321 C0         856.6751 -1008.0155  -646.5452 C0            1 RES     
   21322 C0         855.2877 -1008.3921  -647.0743 C0            1 RES     
   21323 C0         854.4170 -1007.2229  -647.5615 C0            1 RES     
   21324 C0         854.3950 -1006.0271  -646.5873 C0            1 RES     
   21325 C0         853.3061 -1005.0091  -646.9474 C0            1 RES     
   21326 C0         851.9316 -1005.4818  -646.4486 C0            1 RES     
   21327 C0         850.8204 -1004.5125  -646.8537 C0            1 RES     
   21328 C0         849.5070 -1004.8869  -646.1600 C0            1 RES     
   21329 C0         848.2331 -1004.1961  -646.6864 C0            1 RES     
   21330 C0         848.1777 -1002.6554  -646.6689 C0            1 RES     
   21331 C0         848.9087 -1001.9935  -647.8585 C0            1 RES     
   21332 C0         848.8163 -1000.4555  -647.9123 C0            1 RES     
   21333 C0         847.5232  -999.8386  -648.4978 C0            1 RES     
   21334 C0         846.2094 -1000.0203  -647.7232 C0            1 RES     
   21335 C0         846.2908  -999.5041  -646.2879 C0            1 RES     
   21336 H6         857.1103 -1006.4716  -647.9815 H6            1 RES     
   21337 H6         857.8343 -1008.0607  -648.3818 H6            1 RES     
   21338 H6         857.1296 -1008.9481  -646.2149 H6            1 RES     
   21339 H6         856.5290 -1007.3618  -645.6656 H6            1 RES     
   21340 H6         855.3706 -1009.1476  -647.8853 H6            1 RES     
   21341 H6         854.7552 -1008.8714  -646.2222 H6            1 RES     
   21342 H6         854.7774 -1006.8580  -648.5477 H6            1 RES     
   21343 H6         853.4002 -1007.6404  -647.7119 H6            1 RES     
   21344 H6         854.2511 -1006.3523  -645.5337 H6            1 RES     
   21345 H6         855.3836 -1005.5247  -646.6568 H6            1 RES     
   21346 H6         853.3150 -1004.8140  -648.0427 H6            1 RES     
   21347 H6         853.5284 -1004.0530  -646.4246 H6            1 RES     
   21348 H6         851.6791 -1006.4854  -646.8491 H6            1 RES     
   21349 H6         851.9798 -1005.5483  -645.3382 H6            1 RES     
   21350 H6         851.1087 -1003.4923  -646.5286 H6            1 RES     
   21351 H6         850.7074 -1004.5565  -647.9590 H6            1 RES     
   21352 H6         849.3315 -1005.9785  -646.2841 H6            1 RES     
   21353 H6         849.6207 -1004.6849  -645.0713 H6            1 RES     
   21354 H6         847.9931 -1004.5547  -647.7106 H6            1 RES     
   21355 H6         847.4218 -1004.5598  -646.0166 H6            1 RES     
   21356 H6         848.5366 -1002.2645  -645.6922 H6            1 RES     
   21357 H6         847.1113 -1002.4130  -646.7505 H6            1 RES     
   21358 H6         849.9816 -1002.2144  -647.7710 H6            1 RES     
   21359 H6         848.5622 -1002.4158  -648.8267 H6            1 RES     
   21360 H6         849.6135 -1000.1310  -648.6183 H6            1 RES     
   21361 H6         849.0728 -1000.0191  -646.9240 H6            1 RES     
   21362 H6         847.7033  -998.7441  -648.5808 H6            1 RES     
   21363 H6         847.3753 -1000.2275  -649.5291 H6            1 RES     
   21364 H6         845.4199  -999.4473  -648.2557 H6            1 RES     
   21365 H6         845.8785 -1001.0730  -647.7425 H6            1 RES     
   21366 H6         846.5699  -998.4293  -646.2818 H6            1 RES     
   21367 H6         845.3014  -999.6190  -645.7977 H6            1 RES     
   21368 H6         847.0364 -1000.0784  -645.7012 H6            1 RES     
   21369 C0         859.8982 -1008.0187  -646.3785 C0            1 RES     
   21370 C0         859.6333 -1008.4743  -644.9225 C0            1 RES     
   21371 C0         860.3899 -1009.7200  -644.4126 C0            1 RES     
   21372 C0         859.8768 -1011.1087  -644.8679 C0            1 RES     
   21373 C0         858.3567 -1011.2769  -644.6639 C0            1 RES     
   21374 C0         857.8431 -1012.7233  -644.7088 C0            1 RES     
   21375 C0         858.0811 -1013.4487  -643.3742 C0            1 RES     
   21376 C0         857.4838 -1014.8636  -643.3838 C0            1 RES     
   21377 C0         857.5685 -1015.4912  -641.9861 C0            1 RES     
   21378 C0         857.2631 -1017.0010  -641.8809 C0            1 RES     
   21379 C0         855.8533 -1017.5059  -642.2554 C0            1 RES     
   21380 C0         855.6134 -1017.6498  -643.7722 C0            1 RES     
   21381 C0         854.2448 -1018.2464  -644.1643 C0            1 RES     
   21382 C0         854.0911 -1019.7868  -644.1033 C0            1 RES     
   21383 C0         854.1264 -1020.4763  -642.7308 C0            1 RES     
   21384 C0         853.0706 -1019.9368  -641.7679 C0            1 RES     
   21385 H6         859.8246 -1008.8737  -647.0849 H6            1 RES     
   21386 H6         860.9599 -1007.6840  -646.3846 H6            1 RES     
   21387 H6         859.9824 -1007.6382  -644.2819 H6            1 RES     
   21388 H6         858.5674 -1008.6249  -644.7060 H6            1 RES     
   21389 H6         861.4787 -1009.6252  -644.6128 H6            1 RES     
   21390 H6         860.2594 -1009.7126  -643.3072 H6            1 RES     
   21391 H6         860.1213 -1011.3052  -645.9343 H6            1 RES     
   21392 H6         860.4241 -1011.8527  -644.2512 H6            1 RES     
   21393 H6         858.0187 -1010.8189  -643.7082 H6            1 RES     
   21394 H6         857.8785 -1010.7433  -645.4959 H6            1 RES     
   21395 H6         858.2784 -1013.2696  -645.5741 H6            1 RES     
   21396 H6         856.7411 -1012.6784  -644.8485 H6            1 RES     
   21397 H6         859.1663 -1013.5062  -643.1472 H6            1 RES     
   21398 H6         857.5812 -1012.8608  -642.5711 H6            1 RES     
   21399 H6         856.4174 -1014.7831  -643.6700 H6            1 RES     
   21400 H6         858.0395 -1015.4797  -644.1229 H6            1 RES     
   21401 H6         858.6114 -1015.3719  -641.6180 H6            1 RES     
   21402 H6         856.9010 -1014.9255  -641.2980 H6            1 RES     
   21403 H6         858.0230 -1017.5881  -642.4403 H6            1 RES     
   21404 H6         857.4012 -1017.2362  -640.8016 H6            1 RES     
   21405 H6         855.0735 -1016.8755  -641.7756 H6            1 RES     
   21406 H6         855.7881 -1018.5055  -641.8077 H6            1 RES     
   21407 H6         855.6312 -1016.6436  -644.2140 H6            1 RES     
   21408 H6         856.4214 -1018.2428  -644.2526 H6            1 RES     
   21409 H6         854.1118 -1018.0062  -645.2430 H6            1 RES     
   21410 H6         853.4258 -1017.7280  -643.6222 H6            1 RES     
   21411 H6         853.1052 -1020.0264  -644.5598 H6            1 RES     
   21412 H6         854.8718 -1020.2501  -644.7454 H6            1 RES     
   21413 H6         853.9293 -1021.5589  -642.8905 H6            1 RES     
   21414 H6         855.1325 -1020.4189  -642.2806 H6            1 RES     
   21415 H6         852.0565 -1020.0515  -642.2063 H6            1 RES     
   21416 H6         853.1133 -1020.5066  -640.8160 H6            1 RES     
   21417 H6         853.2521 -1018.8666  -641.5402 H6            1 RES     
   21418 C0         865.6062 -1006.2946  -657.8449 C0            1 RES     
   21419 C1         865.1186 -1005.4737  -656.6330 C1            1 RES     
   21420 C1         865.8189 -1004.1863  -656.4456 C1            1 RES     
   21421 S2         865.8942 -1003.9291  -654.6662 S2            1 RES     
   21422 C1         864.2994 -1004.7780  -654.6728 C1            1 RES     
   21423 C1         864.1860 -1005.6843  -655.7104 C1            1 RES     
   21424 C1         866.9930 -1004.4289  -657.2705 C1            1 RES     
   21425 C1         866.9095 -1005.5327  -658.0688 C1            1 RES     
   21426 C1         868.0289 -1005.6818  -658.9073 C1            1 RES     
   21427 C1         868.9464 -1004.6163  -658.7436 C1            1 RES     
   21428 S2         868.3540 -1003.5342  -657.5763 S2            1 RES     
   21429 H3         863.5005 -1006.5149  -655.6709 H3            1 RES     
   21430 H3         868.1606 -1006.5007  -659.6035 H3            1 RES     
   21431 N4         870.8613 -1005.5202  -660.0017 N4            1 RES     
   21432 C1         872.0860 -1005.4422  -660.6022 C1            1 RES     
   21433 C1         872.7680 -1004.2223  -660.6862 C1            1 RES     
   21434 C1         872.1673 -1003.0919  -660.1464 C1            1 RES     
   21435 N4         872.7232 -1001.8562  -660.1872 N4            1 RES     
   21436 S2         871.5850 -1000.9342  -659.4242 S2            1 RES     
   21437 N4         870.4065 -1002.0204  -659.0235 N4            1 RES     
   21438 C1         870.9011 -1003.1901  -659.5079 C1            1 RES     
   21439 C1         870.2456 -1004.4382  -659.4379 C1            1 RES     
   21440 H5         872.5396 -1006.3348  -661.0131 H5            1 RES     
   21441 C0         864.6681 -1006.0598  -659.0733 C0            1 RES     
   21442 C0         863.2456 -1006.5915  -658.8721 C0            1 RES     
   21443 C0         862.2370 -1006.2619  -659.9769 C0            1 RES     
   21444 C0         861.9518 -1004.7680  -660.1989 C0            1 RES     
   21445 C0         861.7000 -1003.9906  -658.8906 C0            1 RES     
   21446 C0         861.1377 -1002.5880  -659.1516 C0            1 RES     
   21447 C0         859.6300 -1002.6505  -659.4421 C0            1 RES     
   21448 C0         859.0606 -1001.2695  -659.7693 C0            1 RES     
   21449 C0         857.5312 -1001.3249  -659.8344 C0            1 RES     
   21450 C0         856.8263 -1000.0947  -660.4401 C0            1 RES     
   21451 C0         857.0704  -998.7189  -659.7884 C0            1 RES     
   21452 C0         858.3940  -998.0510  -660.2237 C0            1 RES     
   21453 C0         858.6399  -996.6431  -659.6456 C0            1 RES     
   21454 C0         857.9324  -995.4538  -660.3388 C0            1 RES     
   21455 C0         856.4016  -995.3627  -660.2548 C0            1 RES     
   21456 C0         855.8856  -995.3590  -658.8172 C0            1 RES     
   21457 H6         864.6056 -1004.9640  -659.2431 H6            1 RES     
   21458 H6         865.1078 -1006.5139  -659.9881 H6            1 RES     
   21459 H6         863.2954 -1007.6784  -658.8308 H6            1 RES     
   21460 H6         862.8272 -1006.2198  -657.9185 H6            1 RES     
   21461 H6         862.5488 -1006.7207  -660.9401 H6            1 RES     
   21462 H6         861.2803 -1006.7417  -659.6707 H6            1 RES     
   21463 H6         862.8030 -1004.2868  -660.7278 H6            1 RES     
   21464 H6         861.0716 -1004.7212  -660.8726 H6            1 RES     
   21465 H6         861.0097 -1004.5355  -658.2100 H6            1 RES     
   21466 H6         862.6777 -1003.8873  -658.3729 H6            1 RES     
   21467 H6         861.7070 -1002.0964  -659.9714 H6            1 RES     
   21468 H6         861.2642 -1001.9786  -658.2298 H6            1 RES     
   21469 H6         859.4098 -1003.3268  -660.2940 H6            1 RES     
   21470 H6         859.1275 -1003.0538  -658.5341 H6            1 RES     
   21471 H6         859.3508 -1000.5694  -658.9598 H6            1 RES     
   21472 H6         859.4837 -1000.9417  -660.7440 H6            1 RES     
   21473 H6         857.2277 -1002.1884  -660.4669 H6            1 RES     
   21474 H6         857.1474 -1001.5086  -658.8057 H6            1 RES     
   21475 H6         857.0406 -1000.0223  -661.5282 H6            1 RES     
   21476 H6         855.7405 -1000.3170  -660.3371 H6            1 RES     
   21477 H6         856.9869  -998.7923  -658.6825 H6            1 RES     
   21478 H6         856.2433  -998.0915  -660.1417 H6            1 RES     
   21479 H6         859.2281  -998.6635  -659.8539 H6            1 RES     
   21480 H6         858.4780  -998.0124  -661.3314 H6            1 RES     
   21481 H6         859.7235  -996.4396  -659.8004 H6            1 RES     
   21482 H6         858.4721  -996.6422  -658.5480 H6            1 RES     
   21483 H6         858.3395  -994.5284  -659.8748 H6            1 RES     
   21484 H6         858.2232  -995.4396  -661.4121 H6            1 RES     
   21485 H6         856.0915  -994.4115  -660.7391 H6            1 RES     
   21486 H6         855.9225  -996.1659  -660.8407 H6            1 RES     
   21487 H6         856.3309  -994.5134  -658.2516 H6            1 RES     
   21488 H6         854.7814  -995.2436  -658.8216 H6            1 RES     
   21489 H6         856.1319  -996.3111  -658.3046 H6            1 RES     
   21490 C0         865.9259 -1007.8201  -657.5592 C0            1 RES     
   21491 C0         864.9142 -1008.5544  -656.6454 C0            1 RES     
   21492 C0         865.0759 -1010.0810  -656.4789 C0            1 RES     
   21493 C0         864.5838 -1010.9861  -657.6355 C0            1 RES     
   21494 C0         863.1516 -1010.6398  -658.0932 C0            1 RES     
   21495 C0         862.4516 -1011.7165  -658.9350 C0            1 RES     
   21496 C0         861.8762 -1012.8370  -658.0532 C0            1 RES     
   21497 C0         861.0939 -1013.8658  -658.8828 C0            1 RES     
   21498 C0         860.3760 -1014.8624  -657.9631 C0            1 RES     
   21499 C0         859.7702 -1016.1154  -658.6317 C0            1 RES     
   21500 C0         858.6436 -1015.9365  -659.6715 C0            1 RES     
   21501 C0         859.1352 -1015.5294  -661.0757 C0            1 RES     
   21502 C0         858.0343 -1015.4413  -662.1541 C0            1 RES     
   21503 C0         857.5738 -1016.7636  -662.8170 C0            1 RES     
   21504 C0         856.8136 -1017.7895  -661.9626 C0            1 RES     
   21505 C0         855.5540 -1017.2110  -661.3209 C0            1 RES     
   21506 H6         866.0341 -1008.3404  -658.5355 H6            1 RES     
   21507 H6         866.9032 -1007.9102  -657.0340 H6            1 RES     
   21508 H6         865.0697 -1008.1320  -655.6312 H6            1 RES     
   21509 H6         863.8684 -1008.3620  -656.9196 H6            1 RES     
   21510 H6         866.1226 -1010.3358  -656.2068 H6            1 RES     
   21511 H6         864.4371 -1010.3522  -655.6086 H6            1 RES     
   21512 H6         865.2648 -1010.9349  -658.5125 H6            1 RES     
   21513 H6         864.6128 -1012.0246  -657.2429 H6            1 RES     
   21514 H6         862.4944 -1010.3932  -657.2303 H6            1 RES     
   21515 H6         863.2437 -1009.7490  -658.7285 H6            1 RES     
   21516 H6         863.1318 -1012.1032  -659.7253 H6            1 RES     
   21517 H6         861.5833 -1011.2335  -659.4335 H6            1 RES     
   21518 H6         862.6859 -1013.3508  -657.4939 H6            1 RES     
   21519 H6         861.1786 -1012.3717  -657.3202 H6            1 RES     
   21520 H6         860.3330 -1013.3211  -659.4745 H6            1 RES     
   21521 H6         861.8032 -1014.3951  -659.5545 H6            1 RES     
   21522 H6         861.1164 -1015.2462  -657.2270 H6            1 RES     
   21523 H6         859.5854 -1014.3218  -657.3960 H6            1 RES     
   21524 H6         860.5742 -1016.7467  -659.0679 H6            1 RES     
   21525 H6         859.3267 -1016.6913  -657.7885 H6            1 RES     
   21526 H6         857.8690 -1015.2363  -659.2901 H6            1 RES     
   21527 H6         858.1790 -1016.9273  -659.7514 H6            1 RES     
   21528 H6         859.5576 -1014.5171  -661.0055 H6            1 RES     
   21529 H6         859.9415 -1016.2067  -661.4313 H6            1 RES     
   21530 H6         858.4830 -1014.8630  -662.9928 H6            1 RES     
   21531 H6         857.1747 -1014.8440  -661.7833 H6            1 RES     
   21532 H6         856.9011 -1016.4808  -663.6568 H6            1 RES     
   21533 H6         858.4593 -1017.2687  -663.2611 H6            1 RES     
   21534 H6         856.5104 -1018.6267  -662.6287 H6            1 RES     
   21535 H6         857.4712 -1018.2387  -661.1984 H6            1 RES     
   21536 H6         854.8728 -1016.8130  -662.1027 H6            1 RES     
   21537 H6         855.0245 -1018.0102  -660.7608 H6            1 RES     
   21538 H6         855.8089 -1016.3991  -660.6097 H6            1 RES     
   21539 C0         876.6321 -1005.0054  -664.2289 C0            1 RES     
   21540 C1         875.7949 -1004.4591  -663.0537 C1            1 RES     
   21541 C1         876.5556 -1003.6329  -662.0938 C1            1 RES     
   21542 S2         875.8196 -1003.9571  -660.4841 S2            1 RES     
   21543 C1         874.2916 -1004.1227  -661.4338 C1            1 RES     
   21544 C1         874.5141 -1004.5763  -662.7205 C1            1 RES     
   21545 C1         877.9084 -1004.0330  -662.4514 C1            1 RES     
   21546 C1         878.0037 -1004.7424  -663.6134 C1            1 RES     
   21547 C1         879.3343 -1005.0359  -663.9624 C1            1 RES     
   21548 C1         880.2492 -1004.4780  -663.0374 C1            1 RES     
   21549 S2         879.3944 -1003.6496  -661.8260 S2            1 RES     
   21550 H3         873.7464 -1005.0713  -663.2923 H3            1 RES     
   21551 H3         879.6205 -1005.6023  -664.8399 H3            1 RES     
   21552 N4         882.3149 -1005.6049  -663.7654 N4            1 RES     
   21553 C1         883.6660 -1005.8064  -663.7820 C1            1 RES     
   21554 C1         884.5278 -1004.9532  -663.0821 C1            1 RES     
   21555 C1         883.9753 -1003.8945  -662.3724 C1            1 RES     
   21556 N4         884.7113 -1002.9940  -661.6760 N4            1 RES     
   21557 S2         883.5513 -1001.9888  -661.0666 S2            1 RES     
   21558 N4         882.1389 -1002.6358  -661.6286 N4            1 RES     
   21559 C1         882.5664 -1003.7069  -662.3480 C1            1 RES     
   21560 C1         881.7285 -1004.5906  -663.0619 C1            1 RES     
   21561 H5         884.0773 -1006.6394  -664.3374 H5            1 RES     
   21562 C0         876.4617 -1004.0939  -665.4875 C0            1 RES     
   21563 C0         875.0436 -1004.1035  -666.0671 C0            1 RES     
   21564 C0         874.7722 -1003.1189  -667.2087 C0            1 RES     
   21565 C0         874.9249 -1001.6300  -666.8590 C0            1 RES     
   21566 C0         874.2350 -1001.2366  -665.5367 C0            1 RES     
   21567 C0         874.1512  -999.7157  -665.3594 C0            1 RES     
   21568 C0         872.9866  -999.1350  -666.1767 C0            1 RES     
   21569 C0         872.9242  -997.6111  -666.0659 C0            1 RES     
   21570 C0         871.6347  -997.0825  -666.7016 C0            1 RES     
   21571 C0         871.5600  -995.5604  -666.9352 C0            1 RES     
   21572 C0         871.7253  -994.6262  -665.7198 C0            1 RES     
   21573 C0         873.1970  -994.3914  -665.3119 C0            1 RES     
   21574 C0         873.4054  -993.4078  -664.1432 C0            1 RES     
   21575 C0         873.3623  -991.8951  -664.4675 C0            1 RES     
   21576 C0         872.0287  -991.2805  -664.9178 C0            1 RES     
   21577 C0         870.9002  -991.5121  -663.9149 C0            1 RES     
   21578 H6         876.7026 -1003.0533  -665.1833 H6            1 RES     
   21579 H6         877.1872 -1004.3862  -666.2778 H6            1 RES     
   21580 H6         874.8550 -1005.0938  -666.4785 H6            1 RES     
   21581 H6         874.3018 -1003.9032  -665.2721 H6            1 RES     
   21582 H6         875.4104 -1003.3543  -668.0878 H6            1 RES     
   21583 H6         873.7130 -1003.2835  -667.5092 H6            1 RES     
   21584 H6         876.0004 -1001.3601  -666.7808 H6            1 RES     
   21585 H6         874.5021 -1001.0690  -667.7179 H6            1 RES     
   21586 H6         873.2124 -1001.6662  -665.4579 H6            1 RES     
   21587 H6         874.8450 -1001.6547  -664.7074 H6            1 RES     
   21588 H6         875.1264  -999.2480  -665.6203 H6            1 RES     
   21589 H6         873.9375  -999.4950  -664.2904 H6            1 RES     
   21590 H6         873.0737  -999.4011  -667.2505 H6            1 RES     
   21591 H6         872.0436  -999.5750  -665.7807 H6            1 RES     
   21592 H6         872.9220  -997.3370  -664.9915 H6            1 RES     
   21593 H6         873.8164  -997.1891  -666.5783 H6            1 RES     
   21594 H6         871.5091  -997.5482  -667.7042 H6            1 RES     
   21595 H6         870.7785  -997.4075  -666.0688 H6            1 RES     
   21596 H6         872.2778  -995.2543  -667.7266 H6            1 RES     
   21597 H6         870.5375  -995.3906  -667.3411 H6            1 RES     
   21598 H6         871.1108  -994.9861  -664.8664 H6            1 RES     
   21599 H6         871.3079  -993.6661  -666.0463 H6            1 RES     
   21600 H6         873.6154  -995.3457  -664.9630 H6            1 RES     
   21601 H6         873.8061  -994.0618  -666.1815 H6            1 RES     
   21602 H6         874.4470  -993.5781  -663.7890 H6            1 RES     
   21603 H6         872.7371  -993.6689  -663.2957 H6            1 RES     
   21604 H6         873.6692  -991.3630  -663.5401 H6            1 RES     
   21605 H6         874.1272  -991.6728  -665.2435 H6            1 RES     
   21606 H6         872.1799  -990.1846  -665.0259 H6            1 RES     
   21607 H6         871.7422  -991.6425  -665.9202 H6            1 RES     
   21608 H6         871.1758  -991.0944  -662.9236 H6            1 RES     
   21609 H6         869.9791  -991.0058  -664.2723 H6            1 RES     
   21610 H6         870.6807  -992.5938  -663.8071 H6            1 RES     
   21611 C0         876.4724 -1006.5536  -664.5267 C0            1 RES     
   21612 C0         875.0261 -1007.1018  -664.4531 C0            1 RES     
   21613 C0         874.7878 -1008.5581  -664.9077 C0            1 RES     
   21614 C0         874.7431 -1008.8374  -666.4305 C0            1 RES     
   21615 C0         873.8028 -1007.8739  -667.1842 C0            1 RES     
   21616 C0         873.3961 -1008.3216  -668.5956 C0            1 RES     
   21617 C0         872.2636 -1009.3607  -668.5541 C0            1 RES     
   21618 C0         871.7899 -1009.7395  -669.9650 C0            1 RES     
   21619 C0         870.5414 -1010.6284  -669.8912 C0            1 RES     
   21620 C0         870.0983 -1011.3171  -671.2002 C0            1 RES     
   21621 C0         869.6653 -1010.4416  -672.3955 C0            1 RES     
   21622 C0         870.8370 -1009.8481  -673.2042 C0            1 RES     
   21623 C0         870.4269 -1009.0509  -674.4608 C0            1 RES     
   21624 C0         870.0920 -1009.8555  -675.7416 C0            1 RES     
   21625 C0         868.8326 -1010.7356  -675.7498 C0            1 RES     
   21626 C0         867.5597 -1009.9538  -675.4317 C0            1 RES     
   21627 H6         876.9305 -1006.7652  -665.5171 H6            1 RES     
   21628 H6         877.0408 -1007.1446  -663.7739 H6            1 RES     
   21629 H6         874.7566 -1007.0841  -663.3769 H6            1 RES     
   21630 H6         874.2989 -1006.4694  -664.9795 H6            1 RES     
   21631 H6         875.5046 -1009.2454  -664.4092 H6            1 RES     
   21632 H6         873.7718 -1008.8207  -664.5363 H6            1 RES     
   21633 H6         875.7557 -1008.7826  -666.8859 H6            1 RES     
   21634 H6         874.3782 -1009.8808  -666.5381 H6            1 RES     
   21635 H6         872.8753 -1007.6703  -666.6047 H6            1 RES     
   21636 H6         874.3588 -1006.9337  -667.2962 H6            1 RES     
   21637 H6         874.2812 -1008.6787  -669.1663 H6            1 RES     
   21638 H6         872.9848 -1007.4311  -669.1189 H6            1 RES     
   21639 H6         872.5897 -1010.2747  -668.0149 H6            1 RES     
   21640 H6         871.4062 -1008.9108  -668.0035 H6            1 RES     
   21641 H6         871.5271 -1008.8065  -670.4999 H6            1 RES     
   21642 H6         872.6155 -1010.2682  -670.4878 H6            1 RES     
   21643 H6         870.7489 -1011.4544  -669.1756 H6            1 RES     
   21644 H6         869.6984 -1010.0292  -669.4797 H6            1 RES     
   21645 H6         870.8726 -1012.0397  -671.5370 H6            1 RES     
   21646 H6         869.2032 -1011.9120  -670.9100 H6            1 RES     
   21647 H6         868.9559 -1009.6527  -672.0637 H6            1 RES     
   21648 H6         869.1128 -1011.1236  -673.0538 H6            1 RES     
   21649 H6         871.3622 -1009.1290  -672.5601 H6            1 RES     
   21650 H6         871.5657 -1010.6360  -673.4932 H6            1 RES     
   21651 H6         871.3246 -1008.4570  -674.7444 H6            1 RES     
   21652 H6         869.6296 -1008.3187  -674.2128 H6            1 RES     
   21653 H6         869.9723 -1009.1129  -676.5615 H6            1 RES     
   21654 H6         870.9643 -1010.4941  -676.0015 H6            1 RES     
   21655 H6         868.7285 -1011.1682  -676.7688 H6            1 RES     
   21656 H6         868.9431 -1011.5974  -675.0690 H6            1 RES     
   21657 H6         867.4275 -1009.1234  -676.1574 H6            1 RES     
   21658 H6         866.6829 -1010.6312  -675.5024 H6            1 RES     
   21659 H6         867.5960 -1009.5392  -674.4037 H6            1 RES     
   21660 C0         889.3786 -1006.0126  -664.9377 C0            1 RES     
   21661 C1         888.2060 -1005.5704  -664.0377 C1            1 RES     
   21662 C1         888.5594 -1005.4011  -662.6131 C1            1 RES     
   21663 S2         887.0963 -1005.8925  -661.6881 S2            1 RES     
   21664 C1         886.2094 -1005.2014  -663.1023 C1            1 RES     
   21665 C1         886.9269 -1005.3044  -664.2793 C1            1 RES     
   21666 C1         889.8112 -1006.1430  -662.5861 C1            1 RES     
   21667 C1         890.3103 -1006.4622  -663.8156 C1            1 RES     
   21668 C1         891.5596 -1007.1044  -663.7439 C1            1 RES     
   21669 C1         892.0095 -1007.2180  -662.4067 C1            1 RES     
   21670 S2         890.8595 -1006.5310  -661.3627 S2            1 RES     
   21671 H3         886.4464 -1005.2930  -665.2439 H3            1 RES     
   21672 H3         892.1140 -1007.4508  -664.6073 H3            1 RES     
   21673 N4         893.9074 -1008.7531  -662.7360 N4            1 RES     
   21674 C1         895.0333 -1009.4194  -662.3426 C1            1 RES     
   21675 C1         895.6028 -1009.1865  -661.0849 C1            1 RES     
   21676 C1         894.9964 -1008.2587  -660.2475 C1            1 RES     
   21677 N4         895.4692 -1007.9371  -659.0185 N4            1 RES     
   21678 S2         894.3799 -1006.8052  -658.5086 S2            1 RES     
   21679 N4         893.3130 -1006.6956  -659.7652 N4            1 RES     
   21680 C1         893.8146 -1007.5859  -660.6615 C1            1 RES     
   21681 C1         893.2663 -1007.8503  -661.9350 C1            1 RES     
   21682 H5         895.4889 -1010.1417  -663.0076 H5            1 RES     
   21683 C0         890.0118 -1004.7748  -665.6525 C0            1 RES     
   21684 C0         889.0724 -1004.0949  -666.6536 C0            1 RES     
   21685 C0         889.5774 -1002.7901  -667.2773 C0            1 RES     
   21686 C0         889.8308 -1001.6338  -666.2969 C0            1 RES     
   21687 C0         888.6844 -1001.4238  -665.2866 C0            1 RES     
   21688 C0         888.8238 -1000.1021  -664.5215 C0            1 RES     
   21689 C0         888.3302  -998.9234  -665.3751 C0            1 RES     
   21690 C0         888.5205  -997.5874  -664.6560 C0            1 RES     
   21691 C0         887.8228  -996.4626  -665.4271 C0            1 RES     
   21692 C0         888.1668  -995.0222  -664.9982 C0            1 RES     
   21693 C0         887.9092  -994.6153  -663.5335 C0            1 RES     
   21694 C0         889.0204  -995.0653  -662.5587 C0            1 RES     
   21695 C0         888.8315  -994.6168  -661.0958 C0            1 RES     
   21696 C0         889.2441  -993.1695  -660.7345 C0            1 RES     
   21697 C0         888.4369  -992.0073  -661.3315 C0            1 RES     
   21698 C0         886.9457  -992.0951  -661.0123 C0            1 RES     
   21699 H6         890.2752 -1004.0332  -664.8688 H6            1 RES     
   21700 H6         890.9541 -1005.0651  -666.1664 H6            1 RES     
   21701 H6         888.9148 -1004.7795  -667.4855 H6            1 RES     
   21702 H6         888.0960 -1003.8812  -666.1811 H6            1 RES     
   21703 H6         890.4985 -1002.9722  -667.8723 H6            1 RES     
   21704 H6         888.7819 -1002.4603  -667.9827 H6            1 RES     
   21705 H6         890.7672 -1001.8111  -665.7245 H6            1 RES     
   21706 H6         889.9886 -1000.7311  -666.9225 H6            1 RES     
   21707 H6         887.6872 -1001.4531  -665.7779 H6            1 RES     
   21708 H6         888.7290 -1002.2599  -664.5562 H6            1 RES     
   21709 H6         889.8749  -999.9683  -664.1820 H6            1 RES     
   21710 H6         888.1728 -1000.1439  -663.6208 H6            1 RES     
   21711 H6         888.8664  -998.8742  -666.3454 H6            1 RES     
   21712 H6         887.2476  -999.0844  -665.5793 H6            1 RES     
   21713 H6         888.0582  -997.6608  -663.6507 H6            1 RES     
   21714 H6         889.6117  -997.3895  -664.5743 H6            1 RES     
   21715 H6         888.1039  -996.5328  -666.5013 H6            1 RES     
   21716 H6         886.7237  -996.6233  -665.3546 H6            1 RES     
   21717 H6         889.2195  -994.7810  -665.2604 H6            1 RES     
   21718 H6         887.5182  -994.3795  -665.6347 H6            1 RES     
   21719 H6         886.9048  -994.9601  -663.2052 H6            1 RES     
   21720 H6         887.8947  -993.5189  -663.5463 H6            1 RES     
   21721 H6         889.0261  -996.1636  -662.5244 H6            1 RES     
   21722 H6         890.0219  -994.7406  -662.9153 H6            1 RES     
   21723 H6         889.5211  -995.2517  -660.4952 H6            1 RES     
   21724 H6         887.8031  -994.8529  -660.7499 H6            1 RES     
   21725 H6         889.1671  -993.0846  -659.6280 H6            1 RES     
   21726 H6         890.3135  -993.0239  -661.0026 H6            1 RES     
   21727 H6         888.8313  -991.0628  -660.8983 H6            1 RES     
   21728 H6         888.6002  -991.9273  -662.4201 H6            1 RES     
   21729 H6         886.7892  -992.1186  -659.9132 H6            1 RES     
   21730 H6         886.4263  -991.2064  -661.4282 H6            1 RES     
   21731 H6         886.4957  -993.0021  -661.4648 H6            1 RES     
   21732 C0         889.0828 -1007.2339  -665.9030 C0            1 RES     
   21733 C0         887.7022 -1007.2118  -666.6038 C0            1 RES     
   21734 C0         887.4320 -1008.2772  -667.6883 C0            1 RES     
   21735 C0         888.0674 -1008.0592  -669.0839 C0            1 RES     
   21736 C0         887.8098 -1006.6431  -669.6397 C0            1 RES     
   21737 C0         888.0492 -1006.4745  -671.1470 C0            1 RES     
   21738 C0         886.8571 -1006.9910  -671.9693 C0            1 RES     
   21739 C0         887.0523 -1006.7372  -673.4714 C0            1 RES     
   21740 C0         885.7746 -1007.0882  -674.2453 C0            1 RES     
   21741 C0         885.8869 -1007.1494  -675.7840 C0            1 RES     
   21742 C0         886.2579 -1005.8662  -676.5575 C0            1 RES     
   21743 C0         887.7636 -1005.5317  -676.5460 C0            1 RES     
   21744 C0         888.1683 -1004.3079  -677.3953 C0            1 RES     
   21745 C0         888.3372 -1004.5192  -678.9207 C0            1 RES     
   21746 C0         887.0912 -1004.8343  -679.7626 C0            1 RES     
   21747 C0         886.0010 -1003.7728  -679.6303 C0            1 RES     
   21748 H6         889.9075 -1007.2965  -666.6456 H6            1 RES     
   21749 H6         889.0947 -1008.1850  -665.3248 H6            1 RES     
   21750 H6         886.9602 -1007.4146  -665.8040 H6            1 RES     
   21751 H6         887.4542 -1006.2328  -667.0350 H6            1 RES     
   21752 H6         887.6737 -1009.2926  -667.3075 H6            1 RES     
   21753 H6         886.3332 -1008.2475  -667.8639 H6            1 RES     
   21754 H6         889.1629 -1008.2464  -669.0678 H6            1 RES     
   21755 H6         887.6031 -1008.8158  -669.7514 H6            1 RES     
   21756 H6         886.7781 -1006.2952  -669.4118 H6            1 RES     
   21757 H6         888.5226 -1005.9827  -669.1283 H6            1 RES     
   21758 H6         889.0106 -1006.9450  -671.4487 H6            1 RES     
   21759 H6         888.1205 -1005.3838  -671.3503 H6            1 RES     
   21760 H6         886.7007 -1008.0761  -671.7942 H6            1 RES     
   21761 H6         885.9472 -1006.4427  -671.6347 H6            1 RES     
   21762 H6         887.2645 -1005.6598  -673.6118 H6            1 RES     
   21763 H6         887.9064 -1007.3517  -673.8283 H6            1 RES     
   21764 H6         885.4494 -1008.1042  -673.9298 H6            1 RES     
   21765 H6         884.9725 -1006.3725  -673.9568 H6            1 RES     
   21766 H6         886.5704 -1007.9711  -676.0885 H6            1 RES     
   21767 H6         884.8658 -1007.4335  -676.1244 H6            1 RES     
   21768 H6         885.6453 -1005.0081  -676.2053 H6            1 RES     
   21769 H6         885.9667 -1006.0730  -677.5950 H6            1 RES     
   21770 H6         888.0454 -1005.2779  -675.5144 H6            1 RES     
   21771 H6         888.3726 -1006.4085  -676.8553 H6            1 RES     
   21772 H6         889.1884 -1004.0276  -677.0489 H6            1 RES     
   21773 H6         887.5094 -1003.4432  -677.1686 H6            1 RES     
   21774 H6         888.7712 -1003.5783  -679.3259 H6            1 RES     
   21775 H6         889.0843 -1005.3252  -679.0899 H6            1 RES     
   21776 H6         887.4050 -1004.8784  -680.8284 H6            1 RES     
   21777 H6         886.6926 -1005.8362  -679.5266 H6            1 RES     
   21778 H6         886.3964 -1002.7775  -679.9248 H6            1 RES     
   21779 H6         885.1520 -1004.0302  -680.2978 H6            1 RES     
   21780 H6         885.6214 -1003.7225  -678.5895 H6            1 RES     
   21781 C0         900.4383 -1011.3467  -661.3022 C0            1 RES     
   21782 C1         899.0899 -1010.7931  -660.7966 C1            1 RES     
   21783 C1         898.7444 -1011.1920  -659.4166 C1            1 RES     
   21784 S2         896.9534 -1011.3642  -659.3948 S2            1 RES     
   21785 C1         897.0044 -1010.0137  -660.5938 C1            1 RES     
   21786 C1         898.1616 -1010.0201  -661.3500 C1            1 RES     
   21787 C1         899.6591 -1012.3122  -659.2540 C1            1 RES     
   21788 C1         900.6123 -1012.4143  -660.2254 C1            1 RES     
   21789 C1         901.5230 -1013.4587  -659.9843 C1            1 RES     
   21790 C1         901.2469 -1014.1170  -658.7619 C1            1 RES     
   21791 S2         899.8966 -1013.3977  -658.0246 S2            1 RES     
   21792 H3         898.2135 -1009.5506  -662.3186 H3            1 RES     
   21793 H3         902.3432 -1013.7129  -660.6442 H3            1 RES     
   21794 N4         902.7310 -1016.0687  -658.9969 N4            1 RES     
   21795 C1         903.3776 -1017.1840  -658.5447 C1            1 RES     
   21796 C1         903.3094 -1017.5565  -657.1967 C1            1 RES     
   21797 C1         902.5703 -1016.7622  -656.3292 C1            1 RES     
   21798 N4         902.4502 -1017.0127  -655.0024 N4            1 RES     
   21799 S2         901.4938 -1015.7654  -654.4951 S2            1 RES     
   21800 N4         901.2022 -1014.9091  -655.8775 N4            1 RES     
   21801 C1         901.8870 -1015.6147  -656.8160 C1            1 RES     
   21802 C1         901.9748 -1015.2731  -658.1828 C1            1 RES     
   21803 H5         903.9451 -1017.7926  -659.2369 H5            1 RES     
   21804 C0         901.5633 -1010.2742  -661.1344 C0            1 RES     
   21805 C0         901.3698 -1009.0361  -662.0156 C0            1 RES     
   21806 C0         902.3544 -1007.8844  -661.7906 C0            1 RES     
   21807 C0         902.3279 -1007.2443  -660.3935 C0            1 RES     
   21808 C0         900.9038 -1006.9378  -659.8862 C0            1 RES     
   21809 C0         900.9147 -1006.0466  -658.6383 C0            1 RES     
   21810 C0         901.1295 -1004.5741  -659.0219 C0            1 RES     
   21811 C0         901.2087 -1003.6752  -657.7873 C0            1 RES     
   21812 C0         901.1987 -1002.2001  -658.2001 C0            1 RES     
   21813 C0         901.5687 -1001.1798  -657.1050 C0            1 RES     
   21814 C0         900.7270 -1001.1576  -655.8134 C0            1 RES     
   21815 C0         901.1251 -1002.2476  -654.7932 C0            1 RES     
   21816 C0         900.3512 -1002.2132  -653.4603 C0            1 RES     
   21817 C0         900.8136 -1001.1920  -652.3931 C0            1 RES     
   21818 C0         900.6339  -999.6951  -652.6859 C0            1 RES     
   21819 C0         899.1871  -999.3222  -653.0034 C0            1 RES     
   21820 H6         901.5586 -1009.9462  -660.0733 H6            1 RES     
   21821 H6         902.5596 -1010.7233  -661.3397 H6            1 RES     
   21822 H6         901.4992 -1009.3383  -663.0535 H6            1 RES     
   21823 H6         900.3492 -1008.6300  -661.8897 H6            1 RES     
   21824 H6         903.3923 -1008.2064  -662.0245 H6            1 RES     
   21825 H6         902.0745 -1007.0951  -662.5240 H6            1 RES     
   21826 H6         902.8216 -1007.9112  -659.6538 H6            1 RES     
   21827 H6         902.9378 -1006.3205  -660.4684 H6            1 RES     
   21828 H6         900.2790 -1006.4550  -660.6693 H6            1 RES     
   21829 H6         900.4300 -1007.9075  -659.6223 H6            1 RES     
   21830 H6         901.6786 -1006.4120  -657.9167 H6            1 RES     
   21831 H6         899.9183 -1006.1110  -658.1484 H6            1 RES     
   21832 H6         902.0622 -1004.4406  -659.6082 H6            1 RES     
   21833 H6         900.2686 -1004.2609  -659.6547 H6            1 RES     
   21834 H6         900.3179 -1003.8673  -657.1555 H6            1 RES     
   21835 H6         902.1427 -1003.9229  -657.2371 H6            1 RES     
   21836 H6         901.9394 -1002.0485  -659.0163 H6            1 RES     
   21837 H6         900.1915 -1001.9622  -658.6098 H6            1 RES     
   21838 H6         902.6427 -1001.2738  -656.8349 H6            1 RES     
   21839 H6         901.4426 -1000.1879  -657.5942 H6            1 RES     
   21840 H6         899.6427 -1001.1921  -656.0554 H6            1 RES     
   21841 H6         900.9341 -1000.1801  -655.3615 H6            1 RES     
   21842 H6         900.8998 -1003.2299  -655.2314 H6            1 RES     
   21843 H6         902.2166 -1002.2215  -654.5843 H6            1 RES     
   21844 H6         900.5311 -1003.2026  -652.9825 H6            1 RES     
   21845 H6         899.2591 -1002.1482  -653.6501 H6            1 RES     
   21846 H6         900.2352 -1001.4147  -651.4694 H6            1 RES     
   21847 H6         901.8860 -1001.3749  -652.1626 H6            1 RES     
   21848 H6         900.9484  -999.1324  -651.7804 H6            1 RES     
   21849 H6         901.3098  -999.3636  -653.4929 H6            1 RES     
   21850 H6         898.5229  -999.6095  -652.1610 H6            1 RES     
   21851 H6         899.1140  -998.2253  -653.1580 H6            1 RES     
   21852 H6         898.8414  -999.8258  -653.9291 H6            1 RES     
   21853 C0         900.4088 -1012.0332  -662.7300 C0            1 RES     
   21854 C0         899.5657 -1011.3034  -663.8044 C0            1 RES     
   21855 C0         899.6454 -1011.8265  -665.2550 C0            1 RES     
   21856 C0         900.8992 -1011.4550  -666.0849 C0            1 RES     
   21857 C0         901.2200 -1009.9466  -666.0346 C0            1 RES     
   21858 C0         902.1785 -1009.4413  -667.1226 C0            1 RES     
   21859 C0         901.4501 -1009.2203  -668.4585 C0            1 RES     
   21860 C0         902.3848 -1008.6251  -669.5220 C0            1 RES     
   21861 C0         901.5922 -1008.2409  -670.7784 C0            1 RES     
   21862 C0         902.4121 -1007.8829  -672.0368 C0            1 RES     
   21863 C0         903.3494 -1006.6573  -671.9940 C0            1 RES     
   21864 C0         904.6986 -1006.9149  -671.2922 C0            1 RES     
   21865 C0         905.6895 -1005.7317  -671.3252 C0            1 RES     
   21866 C0         906.5223 -1005.5309  -672.6159 C0            1 RES     
   21867 C0         905.7963 -1005.1066  -673.9018 C0            1 RES     
   21868 C0         905.0060 -1003.8099  -673.7372 C0            1 RES     
   21869 H6         901.4579 -1012.1710  -663.0703 H6            1 RES     
   21870 H6         899.9573 -1013.0478  -662.6530 H6            1 RES     
   21871 H6         898.5084 -1011.4471  -663.4998 H6            1 RES     
   21872 H6         899.7500 -1010.2212  -663.8339 H6            1 RES     
   21873 H6         899.4727 -1012.9236  -665.2849 H6            1 RES     
   21874 H6         898.7940 -1011.3474  -665.7886 H6            1 RES     
   21875 H6         901.7934 -1012.0250  -665.7517 H6            1 RES     
   21876 H6         900.6734 -1011.7572  -667.1295 H6            1 RES     
   21877 H6         900.2951 -1009.3298  -666.0741 H6            1 RES     
   21878 H6         901.7145 -1009.7741  -665.0695 H6            1 RES     
   21879 H6         903.0545 -1010.1191  -667.2221 H6            1 RES     
   21880 H6         902.5490 -1008.4442  -666.7994 H6            1 RES     
   21881 H6         901.0212 -1010.1730  -668.8337 H6            1 RES     
   21882 H6         900.6175 -1008.5023  -668.2798 H6            1 RES     
   21883 H6         902.8434 -1007.7097  -669.1010 H6            1 RES     
   21884 H6         903.1674 -1009.3745  -669.7678 H6            1 RES     
   21885 H6         900.9651 -1009.1124  -671.0695 H6            1 RES     
   21886 H6         900.9066 -1007.4008  -670.5270 H6            1 RES     
   21887 H6         902.9831 -1008.7685  -672.3899 H6            1 RES     
   21888 H6         901.6449 -1007.6608  -672.8123 H6            1 RES     
   21889 H6         902.8234 -1005.7794  -671.5599 H6            1 RES     
   21890 H6         903.5558 -1006.4282  -673.0470 H6            1 RES     
   21891 H6         904.4962 -1007.0973  -670.2274 H6            1 RES     
   21892 H6         905.1974 -1007.8205  -671.7001 H6            1 RES     
   21893 H6         906.4521 -1005.9586  -670.5466 H6            1 RES     
   21894 H6         905.1851 -1004.7942  -671.0091 H6            1 RES     
   21895 H6         907.2709 -1004.7391  -672.3914 H6            1 RES     
   21896 H6         907.0862 -1006.4657  -672.8272 H6            1 RES     
   21897 H6         906.5660 -1004.9462  -674.6880 H6            1 RES     
   21898 H6         905.1471 -1005.9154  -674.2795 H6            1 RES     
   21899 H6         905.6791 -1002.9885  -673.4119 H6            1 RES     
   21900 H6         904.5479 -1003.5308  -674.7092 H6            1 RES     
   21901 H6         904.1930 -1003.9334  -672.9930 H6            1 RES     
   21902 C0         907.1343 -1021.1658  -656.5335 C0            1 RES     
   21903 C1         905.8454 -1020.3334  -656.3711 C1            1 RES     
   21904 C1         904.8121 -1020.9658  -655.5254 C1            1 RES     
   21905 S2         903.2342 -1020.4705  -656.2345 S2            1 RES     
   21906 C1         904.1140 -1018.9434  -656.6318 C1            1 RES     
   21907 C1         905.4654 -1019.1488  -656.8379 C1            1 RES     
   21908 C1         905.2997 -1022.3370  -655.5350 C1            1 RES     
   21909 C1         906.5606 -1022.4892  -656.0346 C1            1 RES     
   21910 C1         907.0221 -1023.8151  -655.9483 C1            1 RES     
   21911 C1         906.0731 -1024.6556  -655.3184 C1            1 RES     
   21912 S2         904.7040 -1023.7444  -654.8942 S2            1 RES     
   21913 H3         906.0643 -1018.4680  -657.4202 H3            1 RES     
   21914 H3         907.9905 -1024.1447  -656.3035 H3            1 RES     
   21915 N4         907.0766 -1026.8519  -655.8040 N4            1 RES     
   21916 C1         907.1971 -1028.2062  -655.6697 C1            1 RES     
   21917 C1         906.4217 -1028.9071  -654.7381 C1            1 RES     
   21918 C1         905.5285 -1028.1911  -653.9511 C1            1 RES     
   21919 N4         904.7426 -1028.7591  -653.0039 N4            1 RES     
   21920 S2         903.9237 -1027.4577  -652.4009 S2            1 RES     
   21921 N4         904.5015 -1026.1880  -653.2859 N4            1 RES     
   21922 C1         905.3994 -1026.7849  -654.1136 C1            1 RES     
   21923 C1         906.1945 -1026.1128  -655.0668 C1            1 RES     
   21924 H5         907.8956 -1028.7470  -656.2951 H5            1 RES     
   21925 C0         908.2263 -1020.6786  -655.5265 C0            1 RES     
   21926 C0         908.7229 -1019.2550  -655.7981 C0            1 RES     
   21927 C0         909.6828 -1018.6635  -654.7611 C0            1 RES     
   21928 C0         909.1167 -1018.4998  -653.3416 C0            1 RES     
   21929 C0         907.7141 -1017.8585  -653.3108 C0            1 RES     
   21930 C0         907.3004 -1017.4429  -651.8939 C0            1 RES     
   21931 C0         907.9543 -1016.1078  -651.5046 C0            1 RES     
   21932 C0         907.6069 -1015.7063  -650.0705 C0            1 RES     
   21933 C0         908.0828 -1014.2783  -649.7863 C0            1 RES     
   21934 C0         908.0748 -1013.8346  -648.3098 C0            1 RES     
   21935 C0         906.7407 -1013.8880  -647.5387 C0            1 RES     
   21936 C0         906.3817 -1015.2964  -647.0143 C0            1 RES     
   21937 C0         905.0883 -1015.3759  -646.1791 C0            1 RES     
   21938 C0         905.1729 -1014.9569  -644.6915 C0            1 RES     
   21939 C0         905.4504 -1013.4830  -644.3606 C0            1 RES     
   21940 C0         904.4356 -1012.5320  -644.9923 C0            1 RES     
   21941 H6         907.7788 -1020.6995  -654.5103 H6            1 RES     
   21942 H6         909.0903 -1021.3785  -655.5244 H6            1 RES     
   21943 H6         909.2711 -1019.2636  -656.7387 H6            1 RES     
   21944 H6         907.8676 -1018.5608  -655.8931 H6            1 RES     
   21945 H6         910.6209 -1019.2579  -654.7133 H6            1 RES     
   21946 H6         909.9473 -1017.6483  -655.1334 H6            1 RES     
   21947 H6         909.0561 -1019.4869  -652.8339 H6            1 RES     
   21948 H6         909.8547 -1017.8845  -652.7869 H6            1 RES     
   21949 H6         907.6474 -1016.9735  -653.9807 H6            1 RES     
   21950 H6         906.9934 -1018.6198  -653.6791 H6            1 RES     
   21951 H6         907.5385 -1018.2569  -651.1739 H6            1 RES     
   21952 H6         906.2002 -1017.2802  -651.8796 H6            1 RES     
   21953 H6         909.0594 -1016.1578  -651.5924 H6            1 RES     
   21954 H6         907.5804 -1015.3306  -652.2088 H6            1 RES     
   21955 H6         906.5045 -1015.7367  -649.9548 H6            1 RES     
   21956 H6         908.0956 -1016.4280  -649.3800 H6            1 RES     
   21957 H6         909.1369 -1014.1745  -650.1268 H6            1 RES     
   21958 H6         907.4623 -1013.5798  -650.3915 H6            1 RES     
   21959 H6         908.8471 -1014.3892  -647.7345 H6            1 RES     
   21960 H6         908.3937 -1012.7685  -648.3375 H6            1 RES     
   21961 H6         905.9210 -1013.4513  -648.1494 H6            1 RES     
   21962 H6         906.8923 -1013.2333  -646.6721 H6            1 RES     
   21963 H6         906.2070 -1015.9526  -647.8782 H6            1 RES     
   21964 H6         907.2217 -1015.7332  -646.4320 H6            1 RES     
   21965 H6         904.8214 -1016.4560  -646.1402 H6            1 RES     
   21966 H6         904.2564 -1014.8639  -646.7069 H6            1 RES     
   21967 H6         904.1926 -1015.2144  -644.2333 H6            1 RES     
   21968 H6         905.9456 -1015.5778  -644.1874 H6            1 RES     
   21969 H6         905.3964 -1013.3675  -643.2565 H6            1 RES     
   21970 H6         906.4796 -1013.1994  -644.6404 H6            1 RES     
   21971 H6         903.4081 -1012.7913  -644.6602 H6            1 RES     
   21972 H6         904.6604 -1011.4911  -644.6788 H6            1 RES     
   21973 H6         904.4840 -1012.5781  -646.0993 H6            1 RES     
   21974 C0         907.6579 -1021.3409  -658.0188 C0            1 RES     
   21975 C0         907.5916 -1020.0723  -658.9041 C0            1 RES     
   21976 C0         908.2515 -1020.1363  -660.2986 C0            1 RES     
   21977 C0         909.7945 -1020.0216  -660.3693 C0            1 RES     
   21978 C0         910.3388 -1018.8213  -659.5669 C0            1 RES     
   21979 C0         911.7783 -1018.4046  -659.9019 C0            1 RES     
   21980 C0         911.8361 -1017.5502  -661.1788 C0            1 RES     
   21981 C0         913.2609 -1017.0527  -661.4638 C0            1 RES     
   21982 C0         913.2575 -1016.0541  -662.6288 C0            1 RES     
   21983 C0         914.6311 -1015.6667  -663.2181 C0            1 RES     
   21984 C0         915.6520 -1014.9391  -662.3177 C0            1 RES     
   21985 C0         916.4218 -1015.8657  -661.3545 C0            1 RES     
   21986 C0         917.5166 -1015.1728  -660.5153 C0            1 RES     
   21987 C0         918.8860 -1014.9195  -661.1938 C0            1 RES     
   21988 C0         918.9616 -1013.9011  -662.3418 C0            1 RES     
   21989 C0         918.4584 -1012.5158  -661.9408 C0            1 RES     
   21990 H6         908.6924 -1021.7454  -657.9762 H6            1 RES     
   21991 H6         907.0370 -1022.0949  -658.5527 H6            1 RES     
   21992 H6         906.5125 -1019.9029  -659.0993 H6            1 RES     
   21993 H6         907.9742 -1019.1751  -658.3996 H6            1 RES     
   21994 H6         907.9044 -1021.0335  -660.8545 H6            1 RES     
   21995 H6         907.8707 -1019.2452  -660.8465 H6            1 RES     
   21996 H6         910.2901 -1020.9496  -660.0104 H6            1 RES     
   21997 H6         910.0417 -1019.8986  -661.4450 H6            1 RES     
   21998 H6         909.6856 -1017.9273  -659.6740 H6            1 RES     
   21999 H6         910.3345 -1019.1336  -658.5143 H6            1 RES     
   22000 H6         912.4442 -1019.2937  -659.9537 H6            1 RES     
   22001 H6         912.1351 -1017.7544  -659.0738 H6            1 RES     
   22002 H6         911.4627 -1018.1246  -662.0523 H6            1 RES     
   22003 H6         911.1773 -1016.6648  -661.0284 H6            1 RES     
   22004 H6         913.6306 -1016.5355  -660.5574 H6            1 RES     
   22005 H6         913.9028 -1017.9279  -661.7014 H6            1 RES     
   22006 H6         912.6900 -1016.5091  -663.4704 H6            1 RES     
   22007 H6         912.7137 -1015.1359  -662.3125 H6            1 RES     
   22008 H6         915.1166 -1016.5534  -663.6799 H6            1 RES     
   22009 H6         914.3881 -1014.9622  -664.0451 H6            1 RES     
   22010 H6         915.1648 -1014.0995  -661.7759 H6            1 RES     
   22011 H6         916.3767 -1014.5021  -663.0160 H6            1 RES     
   22012 H6         915.7039 -1016.2665  -660.6251 H6            1 RES     
   22013 H6         916.8677 -1016.7276  -661.8964 H6            1 RES     
   22014 H6         917.7534 -1015.8808  -659.6896 H6            1 RES     
   22015 H6         917.1159 -1014.2537  -660.0378 H6            1 RES     
   22016 H6         919.5740 -1014.5595  -660.3970 H6            1 RES     
   22017 H6         919.2880 -1015.8887  -661.5617 H6            1 RES     
   22018 H6         920.0279 -1013.8090  -662.6431 H6            1 RES     
   22019 H6         918.4287 -1014.2672  -663.2363 H6            1 RES     
   22020 H6         919.0394 -1012.1319  -661.0754 H6            1 RES     
   22021 H6         918.5851 -1011.8159  -662.7932 H6            1 RES     
   22022 H6         917.3823 -1012.5471  -661.6743 H6            1 RES     
   22023 C0         908.6779 -1033.6864  -654.3335 C0            1 RES     
   22024 C1         907.6585 -1032.5285  -654.3143 C1            1 RES     
   22025 C1         906.2461 -1032.9588  -654.2614 C1            1 RES     
   22026 S2         905.3301 -1031.7366  -655.2127 S2            1 RES     
   22027 C1         906.5708 -1030.5921  -654.5687 C1            1 RES     
   22028 C1         907.7867 -1031.2062  -654.3338 C1            1 RES     
   22029 C1         906.4014 -1034.3451  -654.6764 C1            1 RES     
   22030 C1         907.6905 -1034.7927  -654.6946 C1            1 RES     
   22031 C1         907.7864 -1036.1576  -655.0205 C1            1 RES     
   22032 C1         906.5089 -1036.7389  -655.2043 C1            1 RES     
   22033 S2         905.3108 -1035.5593  -654.9640 S2            1 RES     
   22034 H3         908.7106 -1030.6521  -654.3066 H3            1 RES     
   22035 H3         908.7215 -1036.6977  -655.1016 H3            1 RES     
   22036 N4         907.1729 -1038.9022  -656.1770 N4            1 RES     
   22037 C1         906.9484 -1040.1817  -656.5998 C1            1 RES     
   22038 C1         905.7024 -1040.7920  -656.4109 C1            1 RES     
   22039 C1         904.7005 -1040.0653  -655.7801 C1            1 RES     
   22040 N4         903.4640 -1040.5589  -655.5254 N4            1 RES     
   22041 S2         902.7277 -1039.2881  -654.7701 S2            1 RES     
   22042 N4         903.8928 -1038.1170  -654.7498 N4            1 RES     
   22043 C1         904.9414 -1038.7283  -655.3617 C1            1 RES     
   22044 C1         906.2089 -1038.1444  -655.5736 C1            1 RES     
   22045 H5         907.7403 -1040.7303  -657.0931 H5            1 RES     
   22046 C0         909.2266 -1033.9513  -652.8938 C0            1 RES     
   22047 C0         910.0588 -1032.7953  -652.3298 C0            1 RES     
   22048 C0         910.5004 -1032.9286  -650.8691 C0            1 RES     
   22049 C0         909.3687 -1032.9952  -649.8311 C0            1 RES     
   22050 C0         908.2776 -1031.9259  -650.0439 C0            1 RES     
   22051 C0         907.3267 -1031.8249  -648.8450 C0            1 RES     
   22052 C0         907.9605 -1030.9991  -647.7146 C0            1 RES     
   22053 C0         907.0555 -1030.9398  -646.4834 C0            1 RES     
   22054 C0         907.6053 -1029.9360  -645.4652 C0            1 RES     
   22055 C0         906.9788 -1029.9759  -644.0570 C0            1 RES     
   22056 C0         905.4572 -1029.7630  -643.9286 C0            1 RES     
   22057 C0         904.6248 -1031.0302  -644.2266 C0            1 RES     
   22058 C0         903.1023 -1030.8742  -644.0414 C0            1 RES     
   22059 C0         902.5451 -1030.9730  -642.6008 C0            1 RES     
   22060 C0         902.9114 -1029.8699  -641.5968 C0            1 RES     
   22061 C0         902.5295 -1028.4736  -642.0841 C0            1 RES     
   22062 H6         908.3534 -1034.1056  -652.2250 H6            1 RES     
   22063 H6         909.8294 -1034.8855  -652.8754 H6            1 RES     
   22064 H6         910.9764 -1032.7261  -652.9118 H6            1 RES     
   22065 H6         909.5069 -1031.8419  -652.4244 H6            1 RES     
   22066 H6         911.1653 -1033.8101  -650.7408 H6            1 RES     
   22067 H6         911.1025 -1032.0189  -650.6474 H6            1 RES     
   22068 H6         908.8819 -1033.9944  -649.8543 H6            1 RES     
   22069 H6         909.8554 -1032.8845  -648.8402 H6            1 RES     
   22070 H6         908.7130 -1030.9226  -650.2450 H6            1 RES     
   22071 H6         907.6882 -1032.2267  -650.9365 H6            1 RES     
   22072 H6         907.0280 -1032.8428  -648.5097 H6            1 RES     
   22073 H6         906.4093 -1031.2838  -649.1653 H6            1 RES     
   22074 H6         908.9393 -1031.4208  -647.4053 H6            1 RES     
   22075 H6         908.1283 -1029.9688  -648.1021 H6            1 RES     
   22076 H6         906.0501 -1030.5983  -646.8029 H6            1 RES     
   22077 H6         907.0035 -1031.9589  -646.0416 H6            1 RES     
   22078 H6         908.6911 -1030.1289  -645.3180 H6            1 RES     
   22079 H6         907.4991 -1028.9144  -645.8944 H6            1 RES     
   22080 H6         907.2573 -1030.9171  -643.5357 H6            1 RES     
   22081 H6         907.4727 -1029.1426  -643.5086 H6            1 RES     
   22082 H6         905.1320 -1028.8984  -644.5467 H6            1 RES     
   22083 H6         905.3001 -1029.4953  -642.8768 H6            1 RES     
   22084 H6         904.7605 -1031.2917  -645.2853 H6            1 RES     
   22085 H6         904.9808 -1031.8942  -643.6245 H6            1 RES     
   22086 H6         902.6449 -1031.7422  -644.5675 H6            1 RES     
   22087 H6         902.7418 -1029.9629  -644.5633 H6            1 RES     
   22088 H6         901.4363 -1030.9774  -642.6892 H6            1 RES     
   22089 H6         902.8450 -1031.9519  -642.1666 H6            1 RES     
   22090 H6         902.3598 -1030.0732  -640.6536 H6            1 RES     
   22091 H6         903.9819 -1029.9128  -641.3317 H6            1 RES     
   22092 H6         901.4402 -1028.4252  -642.2949 H6            1 RES     
   22093 H6         902.7747 -1027.7286  -641.2985 H6            1 RES     
   22094 H6         903.0912 -1028.2061  -643.0021 H6            1 RES     
   22095 C0         909.8025 -1033.5950  -655.4461 C0            1 RES     
   22096 C0         910.4158 -1032.1896  -655.6616 C0            1 RES     
   22097 C0         911.6353 -1032.0765  -656.6020 C0            1 RES     
   22098 C0         913.0129 -1032.5177  -656.0485 C0            1 RES     
   22099 C0         913.3291 -1031.8926  -654.6738 C0            1 RES     
   22100 C0         914.8032 -1031.9514  -654.2478 C0            1 RES     
   22101 C0         915.6296 -1030.8420  -654.9188 C0            1 RES     
   22102 C0         917.0830 -1030.8388  -654.4224 C0            1 RES     
   22103 C0         917.8314 -1029.6126  -654.9615 C0            1 RES     
   22104 C0         919.3650 -1029.5985  -654.7827 C0            1 RES     
   22105 C0         919.9505 -1029.5936  -653.3545 C0            1 RES     
   22106 C0         919.9690 -1030.9766  -652.6719 C0            1 RES     
   22107 C0         920.6403 -1031.0114  -651.2823 C0            1 RES     
   22108 C0         922.1869 -1031.0878  -651.2359 C0            1 RES     
   22109 C0         922.9986 -1029.8780  -651.7237 C0            1 RES     
   22110 C0         922.6456 -1028.5889  -650.9844 C0            1 RES     
   22111 H6         910.5893 -1034.3424  -655.2060 H6            1 RES     
   22112 H6         909.3792 -1033.8770  -656.4363 H6            1 RES     
   22113 H6         909.6179 -1031.5886  -656.1447 H6            1 RES     
   22114 H6         910.6769 -1031.6854  -654.7217 H6            1 RES     
   22115 H6         911.4291 -1032.5786  -657.5716 H6            1 RES     
   22116 H6         911.7445 -1030.9893  -656.8142 H6            1 RES     
   22117 H6         913.0852 -1033.6239  -655.9666 H6            1 RES     
   22118 H6         913.7629 -1032.1826  -656.7960 H6            1 RES     
   22119 H6         912.9949 -1030.8330  -654.6193 H6            1 RES     
   22120 H6         912.7614 -1032.4768  -653.9375 H6            1 RES     
   22121 H6         915.2253 -1032.9646  -654.4270 H6            1 RES     
   22122 H6         914.8395 -1031.7512  -653.1549 H6            1 RES     
   22123 H6         915.6156 -1030.9559  -656.0230 H6            1 RES     
   22124 H6         915.1658 -1029.8638  -654.6570 H6            1 RES     
   22125 H6         917.0670 -1030.7839  -653.3168 H6            1 RES     
   22126 H6         917.5760 -1031.7762  -654.7582 H6            1 RES     
   22127 H6         917.6592 -1029.5596  -656.0593 H6            1 RES     
   22128 H6         917.3932 -1028.6962  -654.5065 H6            1 RES     
   22129 H6         919.8290 -1030.4229  -655.3659 H6            1 RES     
   22130 H6         919.6894 -1028.6441  -655.2551 H6            1 RES     
   22131 H6         919.4377 -1028.8337  -652.7258 H6            1 RES     
   22132 H6         920.9902 -1029.2666  -653.4814 H6            1 RES     
   22133 H6         918.9274 -1031.2832  -652.5013 H6            1 RES     
   22134 H6         920.4422 -1031.7411  -653.3253 H6            1 RES     
   22135 H6         920.3105 -1031.9662  -650.8147 H6            1 RES     
   22136 H6         920.2478 -1030.1939  -650.6412 H6            1 RES     
   22137 H6         922.4652 -1031.2556  -650.1718 H6            1 RES     
   22138 H6         922.5184 -1031.9823  -651.8072 H6            1 RES     
   22139 H6         924.0739 -1030.0973  -651.5446 H6            1 RES     
   22140 H6         922.8987 -1029.7435  -652.8147 H6            1 RES     
   22141 H6         922.8042 -1028.7166  -649.8925 H6            1 RES     
   22142 H6         923.2979 -1027.7660  -651.3449 H6            1 RES     
   22143 H6         921.5905 -1028.3021  -651.1700 H6            1 RES     
   22144 C0         906.5111 -1045.9559  -657.2919 C0            1 RES     
   22145 C1         905.8541 -1044.5667  -657.1540 C1            1 RES     
   22146 C1         904.5354 -1044.4468  -657.8093 C1            1 RES     
   22147 S2         904.4436 -1042.7528  -658.4093 S2            1 RES     
   22148 C1         905.4212 -1042.3845  -656.9353 C1            1 RES     
   22149 C1         906.2307 -1043.4399  -656.5592 C1            1 RES     
   22150 C1         904.5970 -1045.6056  -658.6876 C1            1 RES     
   22151 C1         905.6227 -1046.4662  -658.4232 C1            1 RES     
   22152 C1         905.5949 -1047.6108  -659.2403 C1            1 RES     
   22153 C1         904.4755 -1047.6037  -660.1066 C1            1 RES     
   22154 S2         903.5642 -1046.1952  -659.8416 S2            1 RES     
   22155 H3         907.1168 -1043.2958  -655.9630 H3            1 RES     
   22156 H3         906.3294 -1048.4053  -659.1966 H3            1 RES     
   22157 N4         905.0882 -1049.4703  -661.5922 N4            1 RES     
   22158 C1         904.8489 -1050.3940  -662.5699 C1            1 RES     
   22159 C1         903.5727 -1050.5338  -663.1287 C1            1 RES     
   22160 C1         902.5545 -1049.7118  -662.6623 C1            1 RES     
   22161 N4         901.2776 -1049.7713  -663.1134 N4            1 RES     
   22162 S2         900.5332 -1048.6026  -662.2148 S2            1 RES     
   22163 N4         901.7494 -1047.9996  -661.2732 N4            1 RES     
   22164 C1         902.8210 -1048.7421  -661.6577 C1            1 RES     
   22165 C1         904.1215 -1048.6268  -661.1213 C1            1 RES     
   22166 H5         905.6563 -1051.0224  -662.9232 H5            1 RES     
   22167 C0         906.2411 -1046.8140  -656.0133 C0            1 RES     
   22168 C0         906.9093 -1046.2629  -654.7497 C0            1 RES     
   22169 C0         906.5631 -1046.9719  -653.4367 C0            1 RES     
   22170 C0         905.0847 -1046.9232  -653.0192 C0            1 RES     
   22171 C0         904.4600 -1045.5178  -653.1372 C0            1 RES     
   22172 C0         903.0922 -1045.4343  -652.4491 C0            1 RES     
   22173 C0         903.2553 -1045.2692  -650.9300 C0            1 RES     
   22174 C0         901.9031 -1045.2489  -650.2161 C0            1 RES     
   22175 C0         902.0825 -1044.8628  -648.7447 C0            1 RES     
   22176 C0         900.8650 -1045.0839  -647.8250 C0            1 RES     
   22177 C0         899.5418 -1044.3782  -648.1832 C0            1 RES     
   22178 C0         898.7247 -1045.1058  -649.2743 C0            1 RES     
   22179 C0         897.3625 -1044.4667  -649.6101 C0            1 RES     
   22180 C0         896.1774 -1044.7747  -648.6635 C0            1 RES     
   22181 C0         896.2258 -1044.2297  -647.2284 C0            1 RES     
   22182 C0         896.4035 -1042.7136  -647.1753 C0            1 RES     
   22183 H6         905.1435 -1046.8284  -655.8445 H6            1 RES     
   22184 H6         906.5667 -1047.8645  -656.1768 H6            1 RES     
   22185 H6         907.9869 -1046.3655  -654.8669 H6            1 RES     
   22186 H6         906.6673 -1045.1915  -654.6226 H6            1 RES     
   22187 H6         906.8996 -1048.0309  -653.4640 H6            1 RES     
   22188 H6         907.1499 -1046.4535  -652.6453 H6            1 RES     
   22189 H6         904.4844 -1047.6211  -653.6423 H6            1 RES     
   22190 H6         905.0493 -1047.2948  -651.9744 H6            1 RES     
   22191 H6         905.1244 -1044.7314  -652.7167 H6            1 RES     
   22192 H6         904.3234 -1045.3055  -654.2193 H6            1 RES     
   22193 H6         902.4778 -1046.3230  -652.7149 H6            1 RES     
   22194 H6         902.5649 -1044.5272  -652.8180 H6            1 RES     
   22195 H6         903.8636 -1046.0900  -650.4968 H6            1 RES     
   22196 H6         903.7848 -1044.3064  -650.7499 H6            1 RES     
   22197 H6         901.2612 -1044.4862  -650.7017 H6            1 RES     
   22198 H6         901.4489 -1046.2600  -650.3044 H6            1 RES     
   22199 H6         902.9045 -1045.4729  -648.3089 H6            1 RES     
   22200 H6         902.3956 -1043.7954  -648.7027 H6            1 RES     
   22201 H6         900.6711 -1046.1703  -647.6937 H6            1 RES     
   22202 H6         901.1880 -1044.6897  -646.8355 H6            1 RES     
   22203 H6         899.7271 -1043.3138  -648.4445 H6            1 RES     
   22204 H6         898.9565 -1044.3941  -647.2560 H6            1 RES     
   22205 H6         899.2962 -1045.0747  -650.2124 H6            1 RES     
   22206 H6         898.5736 -1046.1761  -649.0148 H6            1 RES     
   22207 H6         897.0534 -1044.9114  -650.5828 H6            1 RES     
   22208 H6         897.4807 -1043.3765  -649.7848 H6            1 RES     
   22209 H6         895.2691 -1044.3478  -649.1432 H6            1 RES     
   22210 H6         896.0361 -1045.8765  -648.6125 H6            1 RES     
   22211 H6         895.2628 -1044.4856  -646.7359 H6            1 RES     
   22212 H6         897.0075 -1044.7365  -646.6366 H6            1 RES     
   22213 H6         895.5807 -1042.2112  -647.7265 H6            1 RES     
   22214 H6         896.3829 -1042.3764  -646.1177 H6            1 RES     
   22215 H6         897.3755 -1042.4121  -647.6157 H6            1 RES     
   22216 C0         908.0239 -1045.9582  -657.7633 C0            1 RES     
   22217 C0         908.9258 -1044.8774  -657.1181 C0            1 RES     
   22218 C0         910.4419 -1044.9458  -657.4030 C0            1 RES     
   22219 C0         911.2712 -1046.0014  -656.6304 C0            1 RES     
   22220 C0         911.0065 -1045.9694  -655.1107 C0            1 RES     
   22221 C0         912.0539 -1046.6850  -654.2454 C0            1 RES     
   22222 C0         913.2985 -1045.8092  -654.0256 C0            1 RES     
   22223 C0         914.3065 -1046.4832  -653.0831 C0            1 RES     
   22224 C0         915.4440 -1045.5147  -652.7329 C0            1 RES     
   22225 C0         916.6747 -1046.1147  -652.0192 C0            1 RES     
   22226 C0         916.4943 -1046.7446  -650.6216 C0            1 RES     
   22227 C0         915.9146 -1048.1738  -650.6401 C0            1 RES     
   22228 C0         915.8184 -1048.8587  -649.2601 C0            1 RES     
   22229 C0         917.1059 -1049.5045  -648.6899 C0            1 RES     
   22230 C0         918.2699 -1048.5887  -648.2811 C0            1 RES     
   22231 C0         917.8650 -1047.5389  -647.2481 C0            1 RES     
   22232 H6         908.4376 -1046.9762  -657.5963 H6            1 RES     
   22233 H6         908.0799 -1045.7612  -658.8574 H6            1 RES     
   22234 H6         908.5904 -1043.9131  -657.5526 H6            1 RES     
   22235 H6         908.7982 -1044.8041  -656.0299 H6            1 RES     
   22236 H6         910.6311 -1045.0285  -658.4947 H6            1 RES     
   22237 H6         910.8485 -1043.9630  -657.0747 H6            1 RES     
   22238 H6         911.0787 -1047.0289  -657.0083 H6            1 RES     
   22239 H6         912.3362 -1045.7592  -656.8323 H6            1 RES     
   22240 H6         910.9005 -1044.9276  -654.7355 H6            1 RES     
   22241 H6         910.0546 -1046.4949  -654.9579 H6            1 RES     
   22242 H6         912.3039 -1047.6811  -654.6719 H6            1 RES     
   22243 H6         911.6015 -1046.8432  -653.2423 H6            1 RES     
   22244 H6         913.7922 -1045.5796  -654.9931 H6            1 RES     
   22245 H6         912.9665 -1044.8530  -653.5608 H6            1 RES     
   22246 H6         913.7749 -1046.7543  -652.1506 H6            1 RES     
   22247 H6         914.7068 -1047.3922  -653.5810 H6            1 RES     
   22248 H6         915.8316 -1045.0818  -653.6815 H6            1 RES     
   22249 H6         915.0295 -1044.6793  -652.1253 H6            1 RES     
   22250 H6         917.1904 -1046.8405  -652.6843 H6            1 RES     
   22251 H6         917.3641 -1045.2511  -651.8845 H6            1 RES     
   22252 H6         915.9024 -1046.0714  -649.9642 H6            1 RES     
   22253 H6         917.5090 -1046.7980  -650.2077 H6            1 RES     
   22254 H6         914.8813 -1048.1146  -651.0099 H6            1 RES     
   22255 H6         916.4835 -1048.8294  -651.3343 H6            1 RES     
   22256 H6         915.1265 -1049.7192  -649.4009 H6            1 RES     
   22257 H6         915.3349 -1048.1821  -648.5240 H6            1 RES     
   22258 H6         916.8029 -1050.0675  -647.7794 H6            1 RES     
   22259 H6         917.4889 -1050.2473  -649.4233 H6            1 RES     
   22260 H6         919.0625 -1049.2276  -647.8340 H6            1 RES     
   22261 H6         918.7321 -1048.1122  -649.1629 H6            1 RES     
   22262 H6         917.4540 -1048.0311  -646.3412 H6            1 RES     
   22263 H6         918.7562 -1046.9441  -646.9572 H6            1 RES     
   22264 H6         917.1059 -1046.8458  -647.6644 H6            1 RES     
   22265 C0         903.6813 -1055.1304  -665.7660 C0            1 RES     
   22266 C1         903.3232 -1053.7042  -665.2989 C1            1 RES     
   22267 C1         902.5303 -1052.9239  -666.2712 C1            1 RES     
   22268 S2         903.0683 -1051.2176  -666.0785 S2            1 RES     
   22269 C1         903.2725 -1051.6832  -664.3448 C1            1 RES     
   22270 C1         903.5806 -1053.0216  -664.1884 C1            1 RES     
   22271 C1         902.7774 -1053.7113  -667.4700 C1            1 RES     
   22272 C1         903.3620 -1054.9237  -667.2441 C1            1 RES     
   22273 C1         903.5060 -1055.6839  -668.4187 C1            1 RES     
   22274 C1         902.9628 -1055.0139  -669.5411 C1            1 RES     
   22275 S2         902.3298 -1053.5152  -669.0535 S2            1 RES     
   22276 H3         904.0826 -1053.3933  -663.3103 H3            1 RES     
   22277 H3         903.9596 -1056.6666  -668.4535 H3            1 RES     
   22278 N4         903.8345 -1056.4489  -671.3433 N4            1 RES     
   22279 C1         903.9172 -1056.8895  -672.6338 C1            1 RES     
   22280 C1         903.0642 -1056.3825  -673.6216 C1            1 RES     
   22281 C1         902.1291 -1055.4222  -673.2565 C1            1 RES     
   22282 N4         901.2396 -1054.8757  -674.1212 N4            1 RES     
   22283 S2         900.3999 -1053.8363  -673.1506 S2            1 RES     
   22284 N4         901.1087 -1054.0249  -671.6703 N4            1 RES     
   22285 C1         902.0658 -1054.9587  -671.9142 C1            1 RES     
   22286 C1         902.9457 -1055.4896  -670.9465 C1            1 RES     
   22287 H5         904.6553 -1057.6352  -672.8997 H5            1 RES     
   22288 C0         902.6718 -1056.1661  -665.1726 C0            1 RES     
   22289 C0         902.7472 -1056.2953  -663.6480 C0            1 RES     
   22290 C0         901.6850 -1057.1817  -662.9903 C0            1 RES     
   22291 C0         900.2287 -1056.7218  -663.1636 C0            1 RES     
   22292 C0         900.0236 -1055.2178  -662.8896 C0            1 RES     
   22293 C0         898.5393 -1054.8473  -662.7837 C0            1 RES     
   22294 C0         897.9849 -1055.2083  -661.3967 C0            1 RES     
   22295 C0         896.4895 -1054.9068  -661.2908 C0            1 RES     
   22296 C0         896.0148 -1055.0646  -659.8430 C0            1 RES     
   22297 C0         894.4893 -1055.0861  -659.6206 C0            1 RES     
   22298 C0         893.6647 -1053.8743  -660.0988 C0            1 RES     
   22299 C0         893.3449 -1053.8974  -661.6104 C0            1 RES     
   22300 C0         892.4631 -1052.7368  -662.1127 C0            1 RES     
   22301 C0         890.9356 -1052.8548  -661.8933 C0            1 RES     
   22302 C0         890.3971 -1052.8137  -660.4555 C0            1 RES     
   22303 C0         890.8189 -1051.5552  -659.6998 C0            1 RES     
   22304 H6         901.6482 -1055.8279  -665.4396 H6            1 RES     
   22305 H6         902.8243 -1057.1647  -665.6373 H6            1 RES     
   22306 H6         903.7062 -1056.7448  -663.3955 H6            1 RES     
   22307 H6         902.6878 -1055.2982  -663.1740 H6            1 RES     
   22308 H6         901.7801 -1058.2318  -663.3420 H6            1 RES     
   22309 H6         901.9101 -1057.1711  -661.9002 H6            1 RES     
   22310 H6         899.8766 -1056.9356  -664.1961 H6            1 RES     
   22311 H6         899.6265 -1057.3447  -662.4705 H6            1 RES     
   22312 H6         900.5446 -1054.8896  -661.9636 H6            1 RES     
   22313 H6         900.4653 -1054.6619  -663.7442 H6            1 RES     
   22314 H6         897.9673 -1055.3297  -663.6071 H6            1 RES     
   22315 H6         898.4407 -1053.7451  -662.8944 H6            1 RES     
   22316 H6         898.1391 -1056.2828  -661.1665 H6            1 RES     
   22317 H6         898.5397 -1054.6043  -660.6436 H6            1 RES     
   22318 H6         896.3203 -1053.8559  -661.6015 H6            1 RES     
   22319 H6         895.9459 -1055.6081  -661.9611 H6            1 RES     
   22320 H6         896.3918 -1056.0318  -659.4427 H6            1 RES     
   22321 H6         896.4707 -1054.2485  -659.2385 H6            1 RES     
   22322 H6         894.0490 -1056.0135  -660.0462 H6            1 RES     
   22323 H6         894.3696 -1055.1472  -658.5157 H6            1 RES     
   22324 H6         894.1555 -1052.9250  -659.7932 H6            1 RES     
   22325 H6         892.7170 -1053.9476  -659.5519 H6            1 RES     
   22326 H6         894.2889 -1053.8024  -662.1648 H6            1 RES     
   22327 H6         892.8831 -1054.8639  -661.9074 H6            1 RES     
   22328 H6         892.5768 -1052.7304  -663.2201 H6            1 RES     
   22329 H6         892.8601 -1051.7657  -661.7489 H6            1 RES     
   22330 H6         890.4701 -1052.0050  -662.4396 H6            1 RES     
   22331 H6         890.5757 -1053.7915  -662.3727 H6            1 RES     
   22332 H6         889.2870 -1052.8332  -660.5086 H6            1 RES     
   22333 H6         890.6850 -1053.7209  -659.8968 H6            1 RES     
   22334 H6         890.4756 -1050.6487  -660.2419 H6            1 RES     
   22335 H6         890.3614 -1051.5612  -658.6883 H6            1 RES     
   22336 H6         891.9207 -1051.5141  -659.5809 H6            1 RES     
   22337 C0         905.2020 -1055.5459  -665.6049 C0            1 RES     
   22338 C0         905.8763 -1055.1106  -664.2807 C0            1 RES     
   22339 C0         907.2977 -1055.6406  -663.9924 C0            1 RES     
   22340 C0         907.4332 -1057.1031  -663.5008 C0            1 RES     
   22341 C0         906.4861 -1057.4256  -662.3262 C0            1 RES     
   22342 C0         906.8302 -1058.6947  -661.5332 C0            1 RES     
   22343 C0         907.9615 -1058.4403  -660.5235 C0            1 RES     
   22344 C0         908.2431 -1059.6810  -659.6633 C0            1 RES     
   22345 C0         909.2383 -1059.3440  -658.5451 C0            1 RES     
   22346 C0         909.8344 -1060.5334  -657.7614 C0            1 RES     
   22347 C0         908.8891 -1061.4353  -656.9395 C0            1 RES     
   22348 C0         908.1233 -1062.4805  -657.7762 C0            1 RES     
   22349 C0         907.2478 -1063.4565  -656.9616 C0            1 RES     
   22350 C0         907.9522 -1064.6648  -656.2954 C0            1 RES     
   22351 C0         908.9319 -1064.4013  -655.1415 C0            1 RES     
   22352 C0         908.2956 -1063.6304  -653.9866 C0            1 RES     
   22353 H6         905.2782 -1056.6452  -665.7502 H6            1 RES     
   22354 H6         905.8113 -1055.0702  -666.4059 H6            1 RES     
   22355 H6         905.9844 -1054.0085  -664.3512 H6            1 RES     
   22356 H6         905.2610 -1055.3197  -663.3955 H6            1 RES     
   22357 H6         907.9656 -1055.4613  -664.8620 H6            1 RES     
   22358 H6         907.6803 -1055.0176  -663.1530 H6            1 RES     
   22359 H6         907.2489 -1057.8290  -664.3222 H6            1 RES     
   22360 H6         908.4889 -1057.2185  -663.1759 H6            1 RES     
   22361 H6         906.4186 -1056.5773  -661.6099 H6            1 RES     
   22362 H6         905.4954 -1057.5871  -662.7714 H6            1 RES     
   22363 H6         907.0543 -1059.5402  -662.2200 H6            1 RES     
   22364 H6         905.9323 -1058.9646  -660.9358 H6            1 RES     
   22365 H6         908.8916 -1058.1329  -661.0459 H6            1 RES     
   22366 H6         907.6411 -1057.6114  -659.8521 H6            1 RES     
   22367 H6         907.2891 -1060.0010  -659.2013 H6            1 RES     
   22368 H6         908.6470 -1060.4834  -660.3171 H6            1 RES     
   22369 H6         910.1081 -1058.8239  -659.0039 H6            1 RES     
   22370 H6         908.7554 -1058.6337  -657.8372 H6            1 RES     
   22371 H6         910.4528 -1061.1669  -658.4332 H6            1 RES     
   22372 H6         910.5286 -1060.0620  -657.0299 H6            1 RES     
   22373 H6         908.1989 -1060.8181  -656.3243 H6            1 RES     
   22374 H6         909.5499 -1061.9748  -656.2494 H6            1 RES     
   22375 H6         907.4266 -1061.9421  -658.4340 H6            1 RES     
   22376 H6         908.8148 -1063.0628  -658.4228 H6            1 RES     
   22377 H6         906.5550 -1063.9226  -657.6977 H6            1 RES     
   22378 H6         906.6134 -1062.8992  -656.2403 H6            1 RES     
   22379 H6         907.1478 -1065.3196  -655.8928 H6            1 RES     
   22380 H6         908.4862 -1065.2448  -657.0795 H6            1 RES     
   22381 H6         909.2726 -1065.3866  -654.7549 H6            1 RES     
   22382 H6         909.8421 -1063.8895  -655.4993 H6            1 RES     
   22383 H6         907.4142 -1064.1820  -653.5961 H6            1 RES     
   22384 H6         909.0356 -1063.5161  -653.1669 H6            1 RES     
   22385 H6         907.9794 -1062.6186  -654.3124 H6            1 RES     
   22386 C0         903.5233 -1059.7055  -677.7256 C0            1 RES     
   22387 C1         903.2708 -1058.4526  -676.8613 C1            1 RES     
   22388 C1         903.2086 -1057.1878  -677.6223 C1            1 RES     
   22389 S2         903.9093 -1055.9339  -676.5384 S2            1 RES     
   22390 C1         903.1647 -1056.9300  -675.2279 C1            1 RES     
   22391 C1         903.0933 -1058.2707  -675.5572 C1            1 RES     
   22392 C1         903.8400 -1057.6205  -678.8601 C1            1 RES     
   22393 C1         903.9967 -1058.9712  -678.9771 C1            1 RES     
   22394 C1         904.5337 -1059.3494  -680.2209 C1            1 RES     
   22395 C1         904.7354 -1058.2289  -681.0620 C1            1 RES     
   22396 S2         904.2519 -1056.8177  -680.2501 S2            1 RES     
   22397 H3         903.0311 -1059.0408  -674.8059 H3            1 RES     
   22398 H3         904.7475 -1060.3727  -680.5034 H3            1 RES     
   22399 N4         906.0643 -1059.2839  -682.8475 N4            1 RES     
   22400 C1         906.6664 -1059.3233  -684.0732 C1            1 RES     
   22401 C1         906.5067 -1058.2733  -684.9856 C1            1 RES     
   22402 C1         905.7182 -1057.1913  -684.6150 C1            1 RES     
   22403 N4         905.4762 -1056.1294  -685.4220 N4            1 RES     
   22404 S2         904.4953 -1055.1905  -684.4817 S2            1 RES     
   22405 N4         904.3579 -1056.0517  -683.0786 N4            1 RES     
   22406 C1         905.1125 -1057.1540  -683.3296 C1            1 RES     
   22407 C1         905.3001 -1058.2290  -682.4342 C1            1 RES     
   22408 H5         907.2804 -1060.1731  -684.3421 H5            1 RES     
   22409 C0         902.1734 -1060.4264  -678.0450 C0            1 RES     
   22410 C0         901.4839 -1061.0169  -676.8109 C0            1 RES     
   22411 C0         900.0872 -1061.6056  -677.0326 C0            1 RES     
   22412 C0         899.0123 -1060.6168  -677.5112 C0            1 RES     
   22413 C0         898.9984 -1059.2942  -676.7175 C0            1 RES     
   22414 C0         897.7487 -1058.4563  -677.0136 C0            1 RES     
   22415 C0         896.5404 -1058.9810  -676.2221 C0            1 RES     
   22416 C0         895.2677 -1058.2000  -676.5517 C0            1 RES     
   22417 C0         894.1383 -1058.5923  -675.5941 C0            1 RES     
   22418 C0         892.7212 -1058.1199  -675.9760 C0            1 RES     
   22419 C0         892.4794 -1056.6077  -676.1556 C0            1 RES     
   22420 C0         892.9237 -1056.0664  -677.5330 C0            1 RES     
   22421 C0         892.6346 -1054.5716  -677.7752 C0            1 RES     
   22422 C0         891.1984 -1054.1828  -678.2015 C0            1 RES     
   22423 C0         890.0578 -1054.3732  -677.1908 C0            1 RES     
   22424 C0         890.3028 -1053.6381  -675.8744 C0            1 RES     
   22425 H6         901.4902 -1059.6753  -678.4951 H6            1 RES     
   22426 H6         902.3318 -1061.2272  -678.7999 H6            1 RES     
   22427 H6         902.0970 -1061.8383  -676.4438 H6            1 RES     
   22428 H6         901.4005 -1060.2540  -676.0149 H6            1 RES     
   22429 H6         900.1324 -1062.4643  -677.7369 H6            1 RES     
   22430 H6         899.7609 -1061.9993  -676.0438 H6            1 RES     
   22431 H6         899.1627 -1060.3731  -678.5854 H6            1 RES     
   22432 H6         898.0439 -1061.1511  -677.4232 H6            1 RES     
   22433 H6         899.0658 -1059.4672  -675.6211 H6            1 RES     
   22434 H6         899.8935 -1058.7128  -677.0264 H6            1 RES     
   22435 H6         897.5585 -1058.4310  -678.1095 H6            1 RES     
   22436 H6         897.9316 -1057.4142  -676.6709 H6            1 RES     
   22437 H6         896.3532 -1060.0541  -676.4339 H6            1 RES     
   22438 H6         896.7731 -1058.8718  -675.1388 H6            1 RES     
   22439 H6         895.4759 -1057.1187  -676.4221 H6            1 RES     
   22440 H6         894.9860 -1058.4236  -677.6039 H6            1 RES     
   22441 H6         894.0814 -1059.7020  -675.5380 H6            1 RES     
   22442 H6         894.3985 -1058.2159  -674.5794 H6            1 RES     
   22443 H6         892.3670 -1058.6529  -676.8846 H6            1 RES     
   22444 H6         892.0785 -1058.4554  -675.1315 H6            1 RES     
   22445 H6         892.9385 -1056.0385  -675.3186 H6            1 RES     
   22446 H6         891.3920 -1056.4876  -676.0802 H6            1 RES     
   22447 H6         894.0158 -1056.1639  -677.6067 H6            1 RES     
   22448 H6         892.4821 -1056.6640  -678.3598 H6            1 RES     
   22449 H6         893.2626 -1054.2814  -678.6474 H6            1 RES     
   22450 H6         892.9896 -1053.9659  -676.9150 H6            1 RES     
   22451 H6         891.2264 -1053.1014  -678.4608 H6            1 RES     
   22452 H6         890.9371 -1054.7375  -679.1292 H6            1 RES     
   22453 H6         889.1287 -1053.9694  -677.6481 H6            1 RES     
   22454 H6         889.8607 -1055.4440  -677.0104 H6            1 RES     
   22455 H6         890.4443 -1052.5526  -676.0616 H6            1 RES     
   22456 H6         889.4262 -1053.7741  -675.2070 H6            1 RES     
   22457 H6         891.1976 -1054.0390  -675.3564 H6            1 RES     
   22458 C0         904.6678 -1060.6750  -677.2147 C0            1 RES     
   22459 C0         904.6970 -1060.9266  -675.6871 C0            1 RES     
   22460 C0         905.6733 -1061.9985  -675.1559 C0            1 RES     
   22461 C0         905.2697 -1063.4843  -675.3237 C0            1 RES     
   22462 C0         903.8342 -1063.7693  -674.8350 C0            1 RES     
   22463 C0         903.5027 -1065.2492  -674.5947 C0            1 RES     
   22464 C0         904.0385 -1065.7348  -673.2378 C0            1 RES     
   22465 C0         903.6268 -1067.1867  -672.9525 C0            1 RES     
   22466 C0         904.0103 -1067.5815  -671.5202 C0            1 RES     
   22467 C0         903.9146 -1069.0803  -671.1617 C0            1 RES     
   22468 C0         902.5364 -1069.7738  -671.2114 C0            1 RES     
   22469 C0         902.0771 -1070.1710  -672.6292 C0            1 RES     
   22470 C0         900.7478 -1070.9532  -672.6910 C0            1 RES     
   22471 C0         900.7974 -1072.4737  -672.3982 C0            1 RES     
   22472 C0         901.1362 -1072.9382  -670.9735 C0            1 RES     
   22473 C0         900.1891 -1072.3652  -669.9210 C0            1 RES     
   22474 H6         904.5886 -1061.6310  -677.7761 H6            1 RES     
   22475 H6         905.6652 -1060.2416  -677.4521 H6            1 RES     
   22476 H6         905.0378 -1059.9719  -675.2357 H6            1 RES     
   22477 H6         903.7061 -1061.1472  -675.2683 H6            1 RES     
   22478 H6         906.6960 -1061.8279  -675.5553 H6            1 RES     
   22479 H6         905.7210 -1061.8350  -674.0558 H6            1 RES     
   22480 H6         905.3632 -1063.8164  -676.3804 H6            1 RES     
   22481 H6         905.9960 -1064.0673  -674.7188 H6            1 RES     
   22482 H6         903.5991 -1063.2062  -673.9049 H6            1 RES     
   22483 H6         903.1671 -1063.4192  -675.6338 H6            1 RES     
   22484 H6         903.8585 -1065.8756  -675.4419 H6            1 RES     
   22485 H6         902.3956 -1065.3357  -674.5431 H6            1 RES     
   22486 H6         905.1446 -1065.6490  -673.1994 H6            1 RES     
   22487 H6         903.6044 -1065.0834  -672.4454 H6            1 RES     
   22488 H6         902.5267 -1067.2570  -673.0549 H6            1 RES     
   22489 H6         904.1292 -1067.8503  -673.6885 H6            1 RES     
   22490 H6         905.0758 -1067.3046  -671.3605 H6            1 RES     
   22491 H6         903.3965 -1066.9863  -670.8076 H6            1 RES     
   22492 H6         904.6421 -1069.6678  -671.7622 H6            1 RES     
   22493 H6         904.2511 -1069.1327  -670.1018 H6            1 RES     
   22494 H6         901.7714 -1069.1578  -670.6908 H6            1 RES     
   22495 H6         902.6675 -1070.6946  -670.6293 H6            1 RES     
   22496 H6         901.8997 -1069.2474  -673.1981 H6            1 RES     
   22497 H6         902.8652 -1070.7474  -673.1603 H6            1 RES     
   22498 H6         900.4157 -1070.8952  -673.7519 H6            1 RES     
   22499 H6         899.9681 -1070.4417  -672.0878 H6            1 RES     
   22500 H6         899.7886 -1072.8768  -672.6380 H6            1 RES     
   22501 H6         901.5168 -1072.9500  -673.0997 H6            1 RES     
   22502 H6         901.0514 -1074.0467  -670.9496 H6            1 RES     
   22503 H6         902.1864 -1072.7132  -670.7190 H6            1 RES     
   22504 H6         899.1401 -1072.6455  -670.1550 H6            1 RES     
   22505 H6         900.4533 -1072.7757  -668.9239 H6            1 RES     
   22506 H6         900.2710 -1071.2601  -669.8743 H6            1 RES     
   22507 C0         908.2152 -1060.1676  -689.6320 C0            1 RES     
   22508 C1         907.8296 -1059.2233  -688.4743 C1            1 RES     
   22509 C1         908.3863 -1057.8594  -688.5871 C1            1 RES     
   22510 S2         908.7123 -1057.3269  -686.8995 S2            1 RES     
   22511 C1         907.2542 -1058.3207  -686.5117 C1            1 RES     
   22512 C1         907.0895 -1059.3818  -687.3823 C1            1 RES     
   22513 C1         909.4347 -1058.1077  -689.5655 C1            1 RES     
   22514 C1         909.3619 -1059.3234  -690.1815 C1            1 RES     
   22515 C1         910.3429 -1059.4873  -691.1761 C1            1 RES     
   22516 C1         911.1359 -1058.3237  -691.3205 C1            1 RES     
   22517 S2         910.6083 -1057.1399  -690.2229 S2            1 RES     
   22518 H3         906.5271 -1060.2604  -687.1119 H3            1 RES     
   22519 H3         910.4619 -1060.3859  -691.7685 H3            1 RES     
   22520 N4         912.9223 -1059.2150  -692.7631 N4            1 RES     
   22521 C1         914.0163 -1059.1087  -693.5745 C1            1 RES     
   22522 C1         914.5201 -1057.8545  -693.9397 C1            1 RES     
   22523 C1         913.8783 -1056.7200  -693.4591 C1            1 RES     
   22524 N4         914.2635 -1055.4562  -693.7622 N4            1 RES     
   22525 S2         913.1566 -1054.5458  -692.9415 S2            1 RES     
   22526 N4         912.2005 -1055.6693  -692.1980 N4            1 RES     
   22527 C1         912.7522 -1056.8445  -692.6007 C1            1 RES     
   22528 C1         912.2755 -1058.1260  -692.2499 C1            1 RES     
   22529 H5         914.5053 -1060.0043  -693.9354 H5            1 RES     
   22530 C0         907.0714 -1060.2175  -690.6965 C0            1 RES     
   22531 C0         905.7760 -1060.8506  -690.1789 C0            1 RES     
   22532 C0         904.5711 -1060.7954  -691.1232 C0            1 RES     
   22533 C0         904.0718 -1059.3887  -691.4897 C0            1 RES     
   22534 C0         903.9379 -1058.4492  -690.2737 C0            1 RES     
   22535 C0         903.1722 -1057.1658  -690.6172 C0            1 RES     
   22536 C0         901.6568 -1057.4211  -690.6271 C0            1 RES     
   22537 C0         900.8763 -1056.1697  -691.0311 C0            1 RES     
   22538 C0         899.3748 -1056.3857  -690.8182 C0            1 RES     
   22539 C0         898.4358 -1055.3387  -691.4498 C0            1 RES     
   22540 C0         898.6089 -1053.8621  -691.0415 C0            1 RES     
   22541 C0         899.7532 -1053.1407  -691.7882 C0            1 RES     
   22542 C0         899.9124 -1051.6436  -691.4563 C0            1 RES     
   22543 C0         898.9619 -1050.6503  -692.1673 C0            1 RES     
   22544 C0         897.4647 -1050.6997  -691.8284 C0            1 RES     
   22545 C0         897.1882 -1050.5274  -690.3361 C0            1 RES     
   22546 H6         906.8477 -1059.1722  -690.9979 H6            1 RES     
   22547 H6         907.4121 -1060.7603  -691.6051 H6            1 RES     
   22548 H6         905.9657 -1061.9080  -690.0018 H6            1 RES     
   22549 H6         905.4724 -1060.3807  -689.2252 H6            1 RES     
   22550 H6         904.7794 -1061.3629  -692.0560 H6            1 RES     
   22551 H6         903.7422 -1061.3151  -690.5921 H6            1 RES     
   22552 H6         904.7616 -1058.9122  -692.2197 H6            1 RES     
   22553 H6         903.0963 -1059.5330  -691.9983 H6            1 RES     
   22554 H6         903.4377 -1058.9494  -689.4156 H6            1 RES     
   22555 H6         904.9653 -1058.1716  -689.9545 H6            1 RES     
   22556 H6         903.5381 -1056.7514  -691.5827 H6            1 RES     
   22557 H6         903.3679 -1056.4130  -689.8222 H6            1 RES     
   22558 H6         901.3888 -1058.2382  -691.3286 H6            1 RES     
   22559 H6         901.3594 -1057.7286  -689.5991 H6            1 RES     
   22560 H6         901.2032 -1055.3288  -690.3864 H6            1 RES     
   22561 H6         901.0946 -1055.9546  -692.1000 H6            1 RES     
   22562 H6         899.0834 -1057.3616  -691.2661 H6            1 RES     
   22563 H6         899.1859 -1056.4471  -689.7230 H6            1 RES     
   22564 H6         898.4630 -1055.4127  -692.5584 H6            1 RES     
   22565 H6         897.4162 -1055.6491  -691.1287 H6            1 RES     
   22566 H6         898.7127 -1053.7733  -689.9384 H6            1 RES     
   22567 H6         897.6649 -1053.3812  -691.3247 H6            1 RES     
   22568 H6         900.7048 -1053.6037  -691.4922 H6            1 RES     
   22569 H6         899.6539 -1053.2638  -692.8885 H6            1 RES     
   22570 H6         900.9238 -1051.3598  -691.8250 H6            1 RES     
   22571 H6         899.9231 -1051.4915  -690.3564 H6            1 RES     
   22572 H6         899.3203 -1049.6292  -691.9102 H6            1 RES     
   22573 H6         899.0736 -1050.7717  -693.2670 H6            1 RES     
   22574 H6         896.9661 -1049.8693  -692.3736 H6            1 RES     
   22575 H6         897.0012 -1051.6265  -692.2080 H6            1 RES     
   22576 H6         897.6102 -1049.5653  -689.9761 H6            1 RES     
   22577 H6         896.0919 -1050.5240  -690.1617 H6            1 RES     
   22578 H6         897.6289 -1051.3607  -689.7519 H6            1 RES     
   22579 C0         908.7624 -1061.5921  -689.2052 C0            1 RES     
   22580 C0         908.0081 -1062.2747  -688.0378 C0            1 RES     
   22581 C0         908.3817 -1063.7342  -687.6993 C0            1 RES     
   22582 C0         907.8270 -1064.8498  -688.6194 C0            1 RES     
   22583 C0         906.3085 -1064.7213  -688.8605 C0            1 RES     
   22584 C0         905.6216 -1065.9781  -689.4141 C0            1 RES     
   22585 C0         905.3372 -1067.0020  -688.3029 C0            1 RES     
   22586 C0         904.5657 -1068.2180  -688.8366 C0            1 RES     
   22587 C0         904.1325 -1069.1284  -687.6799 C0            1 RES     
   22588 C0         903.5873 -1070.5227  -688.0576 C0            1 RES     
   22589 C0         902.2958 -1070.6175  -688.8976 C0            1 RES     
   22590 C0         902.5029 -1070.3832  -690.4079 C0            1 RES     
   22591 C0         901.2417 -1070.5706  -691.2780 C0            1 RES     
   22592 C0         900.8483 -1072.0178  -691.6664 C0            1 RES     
   22593 C0         900.3668 -1072.9712  -690.5620 C0            1 RES     
   22594 C0         899.1640 -1072.4292  -689.7922 C0            1 RES     
   22595 H6         908.7769 -1062.2423  -690.1066 H6            1 RES     
   22596 H6         909.8146 -1061.5035  -688.8527 H6            1 RES     
   22597 H6         908.2701 -1061.6888  -687.1325 H6            1 RES     
   22598 H6         906.9163 -1062.2311  -688.1470 H6            1 RES     
   22599 H6         909.4818 -1063.8393  -687.5838 H6            1 RES     
   22600 H6         907.9285 -1063.9311  -686.7018 H6            1 RES     
   22601 H6         908.3477 -1064.8661  -689.6014 H6            1 RES     
   22602 H6         908.0464 -1065.8079  -688.1025 H6            1 RES     
   22603 H6         905.7720 -1064.4120  -687.9364 H6            1 RES     
   22604 H6         906.1872 -1063.9334  -689.6156 H6            1 RES     
   22605 H6         906.2094 -1066.4117  -690.2526 H6            1 RES     
   22606 H6         904.6319 -1065.6654  -689.8123 H6            1 RES     
   22607 H6         906.2830 -1067.3414  -687.8309 H6            1 RES     
   22608 H6         904.7134 -1066.5015  -687.5277 H6            1 RES     
   22609 H6         903.6587 -1067.8483  -689.3528 H6            1 RES     
   22610 H6         905.2186 -1068.7708  -689.5454 H6            1 RES     
   22611 H6         905.0226 -1069.3198  -687.0407 H6            1 RES     
   22612 H6         903.3819 -1068.5884  -687.0602 H6            1 RES     
   22613 H6         904.3832 -1071.1304  -688.5397 H6            1 RES     
   22614 H6         903.3587 -1071.0040  -687.0801 H6            1 RES     
   22615 H6         901.5115 -1069.9474  -688.4832 H6            1 RES     
   22616 H6         901.9505 -1071.6500  -688.7610 H6            1 RES     
   22617 H6         902.8027 -1069.3353  -690.5493 H6            1 RES     
   22618 H6         903.3196 -1071.0236  -690.8058 H6            1 RES     
   22619 H6         901.4758 -1070.0858  -692.2523 H6            1 RES     
   22620 H6         900.3851 -1070.0118  -690.8452 H6            1 RES     
   22621 H6         900.0204 -1071.9349  -692.4050 H6            1 RES     
   22622 H6         901.7070 -1072.4946  -692.1875 H6            1 RES     
   22623 H6         900.0670 -1073.9263  -691.0461 H6            1 RES     
   22624 H6         901.1884 -1073.2308  -689.8721 H6            1 RES     
   22625 H6         898.3229 -1072.2250  -690.4882 H6            1 RES     
   22626 H6         898.8336 -1073.1817  -689.0458 H6            1 RES     
   22627 H6         899.4269 -1071.4968  -689.2521 H6            1 RES     
   22628 C0         917.8361 -1058.7833  -697.9693 C0            1 RES     
   22629 C1         917.1362 -1058.1494  -696.7492 C1            1 RES     
   22630 C1         917.9324 -1057.1148  -696.0574 C1            1 RES     
   22631 S2         917.5084 -1057.2604  -694.3147 S2            1 RES     
   22632 C1         915.8807 -1057.7199  -694.9500 C1            1 RES     
   22633 C1         915.9493 -1058.3406  -696.1833 C1            1 RES     
   22634 C1         919.2497 -1057.4288  -696.5904 C1            1 RES     
   22635 C1         919.2452 -1058.2946  -697.6455 C1            1 RES     
   22636 C1         920.5290 -1058.5046  -698.1804 C1            1 RES     
   22637 C1         921.5037 -1057.7239  -697.5139 C1            1 RES     
   22638 S2         920.7575 -1056.8089  -696.2931 S2            1 RES     
   22639 H3         915.1674 -1058.9909  -696.5397 H3            1 RES     
   22640 H3         920.7392 -1059.1673  -699.0106 H3            1 RES     
   22641 N4         923.5499 -1058.7385  -698.4361 N4            1 RES     
   22642 C1         924.8955 -1058.8052  -698.6629 C1            1 RES     
   22643 C1         925.7458 -1057.7739  -698.2461 C1            1 RES     
   22644 C1         925.1871 -1056.6791  -697.5986 C1            1 RES     
   22645 N4         925.9079 -1055.6143  -697.1695 N4            1 RES     
   22646 S2         924.7448 -1054.6477  -696.5059 S2            1 RES     
   22647 N4         923.3517 -1055.5098  -696.7190 N4            1 RES     
   22648 C1         923.7880 -1056.6306  -697.3523 C1            1 RES     
   22649 C1         922.9626 -1057.6917  -697.7828 C1            1 RES     
   22650 H5         925.3126 -1059.6685  -699.1652 H5            1 RES     
   22651 C0         917.3557 -1058.0964  -699.2890 C0            1 RES     
   22652 C0         915.8755 -1058.3350  -699.6035 C0            1 RES     
   22653 C0         915.3057 -1057.5684  -700.8011 C0            1 RES     
   22654 C0         915.3271 -1056.0358  -700.6864 C0            1 RES     
   22655 C0         914.8139 -1055.5152  -699.3282 C0            1 RES     
   22656 C0         914.5722 -1054.0010  -699.3442 C0            1 RES     
   22657 C0         913.2294 -1053.6704  -700.0144 C0            1 RES     
   22658 C0         912.9976 -1052.1612  -700.0996 C0            1 RES     
   22659 C0         911.5678 -1051.8666  -700.5636 C0            1 RES     
   22660 C0         911.2693 -1050.4131  -700.9822 C0            1 RES     
   22661 C0         911.5098 -1049.2923  -699.9511 C0            1 RES     
   22662 C0         912.9873 -1048.8531  -699.8435 C0            1 RES     
   22663 C0         913.2564 -1047.6867  -698.8720 C0            1 RES     
   22664 C0         912.9755 -1046.2531  -699.3834 C0            1 RES     
   22665 C0         911.5216 -1045.8499  -699.6704 C0            1 RES     
   22666 C0         910.6049 -1046.0361  -698.4629 C0            1 RES     
   22667 H6         917.5116 -1057.0028  -699.1740 H6            1 RES     
   22668 H6         917.9762 -1058.4327  -700.1481 H6            1 RES     
   22669 H6         915.7474 -1059.3903  -699.8390 H6            1 RES     
   22670 H6         915.2510 -1058.0900  -698.7246 H6            1 RES     
   22671 H6         915.8196 -1057.8711  -701.7391 H6            1 RES     
   22672 H6         914.2408 -1057.8812  -700.8859 H6            1 RES     
   22673 H6         916.3597 -1055.6519  -700.8354 H6            1 RES     
   22674 H6         914.7067 -1055.6574  -701.5248 H6            1 RES     
   22675 H6         913.8780 -1056.0270  -699.0140 H6            1 RES     
   22676 H6         915.5954 -1055.7390  -698.5707 H6            1 RES     
   22677 H6         915.4279 -1053.4843  -699.8328 H6            1 RES     
   22678 H6         914.5062 -1053.6417  -698.2938 H6            1 RES     
   22679 H6         913.1761 -1054.0877  -701.0413 H6            1 RES     
   22680 H6         912.4234 -1054.1360  -699.4035 H6            1 RES     
   22681 H6         913.1331 -1051.7277  -699.0880 H6            1 RES     
   22682 H6         913.7375 -1051.7362  -700.8126 H6            1 RES     
   22683 H6         911.3424 -1052.4902  -701.4569 H6            1 RES     
   22684 H6         910.8704 -1052.1742  -699.7524 H6            1 RES     
   22685 H6         911.8083 -1050.1620  -701.9212 H6            1 RES     
   22686 H6         910.1821 -1050.4095  -701.2210 H6            1 RES     
   22687 H6         911.0886 -1049.5766  -698.9625 H6            1 RES     
   22688 H6         910.9303 -1048.4396  -700.3247 H6            1 RES     
   22689 H6         913.5707 -1049.6966  -699.4489 H6            1 RES     
   22690 H6         913.4043 -1048.6017  -700.8428 H6            1 RES     
   22691 H6         914.3541 -1047.6967  -698.6869 H6            1 RES     
   22692 H6         912.7693 -1047.8800  -697.8931 H6            1 RES     
   22693 H6         913.3584 -1045.5577  -698.6042 H6            1 RES     
   22694 H6         913.5734 -1046.0774  -700.3045 H6            1 RES     
   22695 H6         911.5169 -1044.7739  -699.9493 H6            1 RES     
   22696 H6         911.1257 -1046.3875  -700.5492 H6            1 RES     
   22697 H6         910.9815 -1045.4464  -697.6005 H6            1 RES     
   22698 H6         909.5832 -1045.6843  -698.7174 H6            1 RES     
   22699 H6         910.5409 -1047.1050  -698.1743 H6            1 RES     
   22700 C0         917.8234 -1060.3669  -698.0243 C0            1 RES     
   22701 C0         916.4864 -1061.0380  -697.6248 C0            1 RES     
   22702 C0         916.3604 -1062.5631  -697.8311 C0            1 RES     
   22703 C0         916.1081 -1063.0750  -699.2710 C0            1 RES     
   22704 C0         914.9478 -1062.3362  -699.9698 C0            1 RES     
   22705 C0         914.3795 -1063.0325  -701.2148 C0            1 RES     
   22706 C0         913.4054 -1064.1601  -700.8360 C0            1 RES     
   22707 C0         912.7630 -1064.7953  -702.0780 C0            1 RES     
   22708 C0         911.6618 -1065.7818  -701.6674 C0            1 RES     
   22709 C0         911.1041 -1066.7030  -702.7739 C0            1 RES     
   22710 C0         910.3811 -1066.0679  -703.9807 C0            1 RES     
   22711 C0         911.3262 -1065.4919  -705.0550 C0            1 RES     
   22712 C0         910.6255 -1064.9409  -706.3152 C0            1 RES     
   22713 C0         910.1924 -1065.9611  -707.3976 C0            1 RES     
   22714 C0         909.0665 -1066.9525  -707.0663 C0            1 RES     
   22715 C0         907.7739 -1066.2613  -706.6370 C0            1 RES     
   22716 H6         918.1402 -1060.6810  -699.0423 H6            1 RES     
   22717 H6         918.5733 -1060.7765  -697.3109 H6            1 RES     
   22718 H6         916.3920 -1060.8828  -696.5301 H6            1 RES     
   22719 H6         915.6120 -1060.5688  -698.0950 H6            1 RES     
   22720 H6         917.2269 -1063.0916  -697.3789 H6            1 RES     
   22721 H6         915.4570 -1062.8652  -697.2552 H6            1 RES     
   22722 H6         917.0203 -1062.9904  -699.9005 H6            1 RES     
   22723 H6         915.8624 -1064.1536  -699.1720 H6            1 RES     
   22724 H6         914.1067 -1062.1392  -699.2689 H6            1 RES     
   22725 H6         915.3583 -1061.3737  -700.3027 H6            1 RES     
   22726 H6         915.1995 -1063.3832  -701.8792 H6            1 RES     
   22727 H6         913.7831 -1062.2778  -701.7722 H6            1 RES     
   22728 H6         913.9237 -1064.9441  -700.2451 H6            1 RES     
   22729 H6         912.5979 -1063.7185  -700.2086 H6            1 RES     
   22730 H6         912.3050 -1063.9857  -702.6785 H6            1 RES     
   22731 H6         913.5535 -1065.3132  -702.6622 H6            1 RES     
   22732 H6         912.0813 -1066.4639  -700.8954 H6            1 RES     
   22733 H6         910.8278 -1065.2133  -701.1982 H6            1 RES     
   22734 H6         911.8979 -1067.3883  -703.1417 H6            1 RES     
   22735 H6         910.3472 -1067.3323  -702.2538 H6            1 RES     
   22736 H6         909.6417 -1065.3118  -703.6382 H6            1 RES     
   22737 H6         909.8191 -1066.8940  -704.4343 H6            1 RES     
   22738 H6         911.8545 -1064.6343  -704.6155 H6            1 RES     
   22739 H6         912.0912 -1066.2386  -705.3594 H6            1 RES     
   22740 H6         911.3861 -1064.3113  -706.8291 H6            1 RES     
   22741 H6         909.7937 -1064.2621  -706.0312 H6            1 RES     
   22742 H6         909.8527 -1065.3682  -708.2756 H6            1 RES     
   22743 H6         911.0843 -1066.5423  -707.7190 H6            1 RES     
   22744 H6         908.8553 -1067.5441  -707.9838 H6            1 RES     
   22745 H6         909.3898 -1067.6848  -706.3064 H6            1 RES     
   22746 H6         907.4260 -1065.5690  -707.4327 H6            1 RES     
   22747 H6         906.9876 -1067.0251  -706.4610 H6            1 RES     
   22748 H6         907.9223 -1065.6929  -705.6963 H6            1 RES     
   22749 C0         930.3315 -1058.6184  -700.7668 C0            1 RES     
   22750 C1         929.2721 -1058.1622  -699.7421 C1            1 RES     
   22751 C1         929.8247 -1057.7428  -698.4376 C1            1 RES     
   22752 S2         928.6000 -1058.2297  -697.2124 S2            1 RES     
   22753 C1         927.4203 -1057.8543  -698.5282 C1            1 RES     
   22754 C1         927.9479 -1058.0645  -699.7885 C1            1 RES     
   22755 C1         931.1466 -1058.3441  -698.5319 C1            1 RES     
   22756 C1         931.4787 -1058.7966  -699.7760 C1            1 RES     
   22757 C1         932.7931 -1059.2932  -699.8397 C1            1 RES     
   22758 C1         933.4612 -1059.1558  -698.5994 C1            1 RES     
   22759 S2         932.4166 -1058.4346  -697.4711 S2            1 RES     
   22760 H3         927.3220 -1058.2484  -700.6462 H3            1 RES     
   22761 H3         933.2411 -1059.7109  -700.7328 H3            1 RES     
   22762 N4         935.4571 -1060.5274  -699.0486 N4            1 RES     
   22763 C1         936.7050 -1061.0108  -698.7737 C1            1 RES     
   22764 C1         937.4348 -1060.5330  -697.6784 C1            1 RES     
   22765 C1         936.8598 -1059.5527  -696.8794 C1            1 RES     
   22766 N4         937.4793 -1059.0018  -695.8069 N4            1 RES     
   22767 S2         936.3539 -1057.9188  -695.2698 S2            1 RES     
   22768 N4         935.0949 -1058.1090  -696.3224 N4            1 RES     
   22769 C1         935.5532 -1059.0717  -697.1655 C1            1 RES     
   22770 C1         934.8455 -1059.5808  -698.2757 C1            1 RES     
   22771 H5         937.1344 -1061.7776  -699.4055 H5            1 RES     
   22772 C0         930.6847 -1057.4479  -701.7410 C0            1 RES     
   22773 C0         929.5209 -1057.0256  -702.6433 C0            1 RES     
   22774 C0         929.7547 -1055.7880  -703.5151 C0            1 RES     
   22775 C0         930.0165 -1054.4760  -702.7585 C0            1 RES     
   22776 C0         929.0289 -1054.2287  -701.5996 C0            1 RES     
   22777 C0         929.1243 -1052.7983  -701.0551 C0            1 RES     
   22778 C0         928.3590 -1051.8188  -701.9587 C0            1 RES     
   22779 C0         928.4950 -1050.3763  -701.4698 C0            1 RES     
   22780 C0         927.5496 -1049.4574  -702.2498 C0            1 RES     
   22781 C0         927.7770 -1047.9415  -702.0850 C0            1 RES     
   22782 C0         927.7082 -1047.3430  -700.6657 C0            1 RES     
   22783 C0         929.0077 -1047.5261  -699.8501 C0            1 RES     
   22784 C0         929.0007 -1046.8801  -698.4503 C0            1 RES     
   22785 C0         929.2837 -1045.3609  -698.3643 C0            1 RES     
   22786 C0         928.2542 -1044.3895  -698.9604 C0            1 RES     
   22787 C0         926.8555 -1044.5749  -698.3752 C0            1 RES     
   22788 H6         930.9761 -1056.5728  -701.1223 H6            1 RES     
   22789 H6         931.5614 -1057.7185  -702.3690 H6            1 RES     
   22790 H6         929.3184 -1057.8416  -703.3351 H6            1 RES     
   22791 H6         928.6135 -1056.8400  -702.0394 H6            1 RES     
   22792 H6         930.5844 -1055.9667  -704.2329 H6            1 RES     
   22793 H6         928.8222 -1055.6505  -704.1074 H6            1 RES     
   22794 H6         931.0468 -1054.4700  -702.3411 H6            1 RES     
   22795 H6         929.9596 -1053.6685  -703.5172 H6            1 RES     
   22796 H6         927.9775 -1054.4315  -701.8996 H6            1 RES     
   22797 H6         929.2925 -1054.9347  -700.7831 H6            1 RES     
   22798 H6         930.1914 -1052.5106  -700.9267 H6            1 RES     
   22799 H6         928.6355 -1052.7662  -700.0566 H6            1 RES     
   22800 H6         928.7231 -1051.8656  -703.0059 H6            1 RES     
   22801 H6         927.2859 -1052.1157  -701.9459 H6            1 RES     
   22802 H6         928.2118 -1050.3406  -700.3983 H6            1 RES     
   22803 H6         929.5523 -1050.0611  -701.6085 H6            1 RES     
   22804 H6         927.6622 -1049.6629  -703.3375 H6            1 RES     
   22805 H6         926.5046 -1049.7134  -701.9644 H6            1 RES     
   22806 H6         928.7364 -1047.6400  -702.5581 H6            1 RES     
   22807 H6         926.9607 -1047.4712  -702.6778 H6            1 RES     
   22808 H6         926.8195 -1047.7313  -700.1227 H6            1 RES     
   22809 H6         927.5564 -1046.2683  -700.8226 H6            1 RES     
   22810 H6         929.1544 -1048.6002  -699.6706 H6            1 RES     
   22811 H6         929.8915 -1047.1621  -700.4176 H6            1 RES     
   22812 H6         929.8504 -1047.3443  -697.9008 H6            1 RES     
   22813 H6         928.0779 -1047.1613  -697.9005 H6            1 RES     
   22814 H6         929.3744 -1045.1159  -697.2831 H6            1 RES     
   22815 H6         930.2703 -1045.1528  -698.8333 H6            1 RES     
   22816 H6         928.5929 -1043.3555  -698.7337 H6            1 RES     
   22817 H6         928.2305 -1044.4611  -700.0614 H6            1 RES     
   22818 H6         926.8805 -1044.4454  -697.2725 H6            1 RES     
   22819 H6         926.1706 -1043.8162  -698.8085 H6            1 RES     
   22820 H6         926.4546 -1045.5805  -698.6158 H6            1 RES     
   22821 C0         930.0387 -1059.9962  -701.4926 C0            1 RES     
   22822 C0         928.5719 -1060.2185  -701.9363 C0            1 RES     
   22823 C0         928.2658 -1061.4588  -702.8037 C0            1 RES     
   22824 C0         928.6385 -1061.3948  -704.3057 C0            1 RES     
   22825 C0         928.1226 -1060.1130  -704.9921 C0            1 RES     
   22826 C0         928.0956 -1060.1539  -706.5269 C0            1 RES     
   22827 C0         926.8607 -1060.9058  -707.0501 C0            1 RES     
   22828 C0         926.7807 -1060.8666  -708.5833 C0            1 RES     
   22829 C0         925.4492 -1061.4567  -709.0663 C0            1 RES     
   22830 C0         925.3212 -1061.7410  -710.5786 C0            1 RES     
   22831 C0         925.4026 -1060.5609  -711.5701 C0            1 RES     
   22832 C0         926.8377 -1060.0809  -711.8684 C0            1 RES     
   22833 C0         926.9473 -1058.9674  -712.9318 C0            1 RES     
   22834 C0         926.8954 -1059.3917  -714.4208 C0            1 RES     
   22835 C0         925.5797 -1059.9539  -714.9806 C0            1 RES     
   22836 C0         924.4019 -1058.9979  -714.8021 C0            1 RES     
   22837 H6         930.7356 -1060.0896  -702.3534 H6            1 RES     
   22838 H6         930.2601 -1060.8418  -700.8033 H6            1 RES     
   22839 H6         927.9979 -1060.3692  -700.9986 H6            1 RES     
   22840 H6         928.1392 -1059.3464  -702.4443 H6            1 RES     
   22841 H6         928.6889 -1062.3750  -702.3388 H6            1 RES     
   22842 H6         927.1579 -1061.5653  -702.7857 H6            1 RES     
   22843 H6         929.7372 -1061.4678  -704.4576 H6            1 RES     
   22844 H6         928.1708 -1062.2869  -704.7736 H6            1 RES     
   22845 H6         927.1055 -1059.8383  -704.6351 H6            1 RES     
   22846 H6         928.8207 -1059.3148  -704.7072 H6            1 RES     
   22847 H6         929.0472 -1060.5674  -706.9271 H6            1 RES     
   22848 H6         927.9982 -1059.1056  -706.8837 H6            1 RES     
   22849 H6         926.8695 -1061.9614  -706.7064 H6            1 RES     
   22850 H6         925.9551 -1060.4057  -706.6372 H6            1 RES     
   22851 H6         926.8331 -1059.8076  -708.9019 H6            1 RES     
   22852 H6         927.6362 -1061.4407  -708.9992 H6            1 RES     
   22853 H6         925.3066 -1062.4397  -708.5654 H6            1 RES     
   22854 H6         924.6212 -1060.7883  -708.7398 H6            1 RES     
   22855 H6         926.0436 -1062.5278  -710.8856 H6            1 RES     
   22856 H6         924.3018 -1062.1737  -710.6929 H6            1 RES     
   22857 H6         924.7527 -1059.7240  -711.2338 H6            1 RES     
   22858 H6         924.9773 -1060.9517  -712.5030 H6            1 RES     
   22859 H6         927.2471 -1059.6457  -710.9459 H6            1 RES     
   22860 H6         927.4931 -1060.9300  -712.1597 H6            1 RES     
   22861 H6         927.9671 -1058.5377  -712.8108 H6            1 RES     
   22862 H6         926.2313 -1058.1478  -712.7107 H6            1 RES     
   22863 H6         927.1396 -1058.4855  -715.0184 H6            1 RES     
   22864 H6         927.6997 -1060.1360  -714.6092 H6            1 RES     
   22865 H6         925.7223 -1060.1291  -716.0693 H6            1 RES     
   22866 H6         925.3507 -1060.9424  -714.5462 H6            1 RES     
   22867 H6         924.6191 -1058.0251  -715.2922 H6            1 RES     
   22868 H6         923.4956 -1059.4372  -715.2694 H6            1 RES     
   22869 H6         924.1899 -1058.8269  -713.7270 H6            1 RES     
   22870 C0         942.4030 -1062.2109  -698.4511 C0            1 RES     
   22871 C1         941.0945 -1061.7229  -697.7951 C1            1 RES     
   22872 C1         941.0258 -1061.9383  -696.3351 C1            1 RES     
   22873 S2         939.2964 -1062.2819  -695.9758 S2            1 RES     
   22874 C1         938.9881 -1061.1323  -697.3351 C1            1 RES     
   22875 C1         940.0016 -1061.1395  -698.2751 C1            1 RES     
   22876 C1         942.0860 -1062.9242  -696.1872 C1            1 RES     
   22877 C1         942.8771 -1063.0787  -697.2886 C1            1 RES     
   22878 C1         943.9367 -1063.9785  -697.0736 C1            1 RES     
   22879 C1         943.9427 -1064.4662  -695.7447 C1            1 RES     
   22880 S2         942.6489 -1063.7800  -694.8845 S2            1 RES     
   22881 H3         939.8398 -1060.8209  -699.2918 H3            1 RES     
   22882 H3         944.6660 -1064.2480  -697.8273 H3            1 RES     
   22883 N4         945.5999 -1066.2740  -695.9733 N4            1 RES     
   22884 C1         946.4432 -1067.2374  -695.4966 C1            1 RES     
   22885 C1         946.6375 -1067.4043  -694.1201 C1            1 RES     
   22886 C1         945.9539 -1066.5638  -693.2505 C1            1 RES     
   22887 N4         946.0789 -1066.6191  -691.9019 N4            1 RES     
   22888 S2         945.0691 -1065.4099  -691.4060 S2            1 RES     
   22889 N4         944.4570 -1064.8084  -692.8176 N4            1 RES     
   22890 C1         945.0652 -1065.5777  -693.7588 C1            1 RES     
   22891 C1         944.8908 -1065.4422  -695.1530 C1            1 RES     
   22892 H5         946.9637 -1067.8853  -696.1899 H5            1 RES     
   22893 C0         943.3991 -1061.0192  -698.6289 C0            1 RES     
   22894 C0         942.9159 -1059.9558  -699.6202 C0            1 RES     
   22895 C0         943.7739 -1058.6913  -699.7281 C0            1 RES     
   22896 C0         943.8917 -1057.8509  -698.4467 C0            1 RES     
   22897 C0         942.5400 -1057.6131  -697.7426 C0            1 RES     
   22898 C0         942.6398 -1056.5450  -696.6469 C0            1 RES     
   22899 C0         942.6070 -1055.1345  -697.2560 C0            1 RES     
   22900 C0         942.7705 -1054.0540  -696.1863 C0            1 RES     
   22901 C0         942.5126 -1052.6677  -696.7847 C0            1 RES     
   22902 C0         942.9237 -1051.4603  -695.9185 C0            1 RES     
   22903 C0         942.3027 -1051.3244  -694.5138 C0            1 RES     
   22904 C0         942.9900 -1052.2007  -693.4428 C0            1 RES     
   22905 C0         942.4406 -1052.0397  -692.0114 C0            1 RES     
   22906 C0         942.9376 -1050.8266  -691.1887 C0            1 RES     
   22907 C0         942.5299 -1049.4173  -691.6432 C0            1 RES     
   22908 C0         941.0161 -1049.2427  -691.7485 C0            1 RES     
   22909 H6         943.5232 -1060.5348  -697.6372 H6            1 RES     
   22910 H6         944.3975 -1061.3934  -698.9441 H6            1 RES     
   22911 H6         942.9144 -1060.3988  -700.6147 H6            1 RES     
   22912 H6         941.8862 -1059.6384  -699.3723 H6            1 RES     
   22913 H6         944.7928 -1058.9408  -700.0956 H6            1 RES     
   22914 H6         943.2851 -1058.0552  -700.4999 H6            1 RES     
   22915 H6         944.5758 -1058.3446  -697.7227 H6            1 RES     
   22916 H6         944.3630 -1056.8936  -698.7507 H6            1 RES     
   22917 H6         941.7435 -1057.3201  -698.4611 H6            1 RES     
   22918 H6         942.2380 -1058.5733  -697.2720 H6            1 RES     
   22919 H6         943.5483 -1056.7182  -696.0285 H6            1 RES     
   22920 H6         941.7501 -1056.6321  -695.9853 H6            1 RES     
   22921 H6         943.4104 -1055.0004  -698.0096 H6            1 RES     
   22922 H6         941.6241 -1055.0087  -697.7637 H6            1 RES     
   22923 H6         942.0226 -1054.2345  -695.3878 H6            1 RES     
   22924 H6         943.8037 -1054.1208  -695.7807 H6            1 RES     
   22925 H6         943.0890 -1052.5701  -697.7313 H6            1 RES     
   22926 H6         941.4313 -1052.5962  -697.0391 H6            1 RES     
   22927 H6         944.0302 -1051.4050  -695.8313 H6            1 RES     
   22928 H6         942.5995 -1050.5724  -696.5063 H6            1 RES     
   22929 H6         941.2063 -1051.5028  -694.5545 H6            1 RES     
   22930 H6         942.4569 -1050.2737  -694.2404 H6            1 RES     
   22931 H6         942.8208 -1053.2558  -693.6990 H6            1 RES     
   22932 H6         944.0892 -1052.0348  -693.4345 H6            1 RES     
   22933 H6         942.8153 -1052.9217  -691.4446 H6            1 RES     
   22934 H6         941.3326 -1052.1131  -692.0132 H6            1 RES     
   22935 H6         942.5460 -1050.9616  -690.1564 H6            1 RES     
   22936 H6         944.0473 -1050.8649  -691.1280 H6            1 RES     
   22937 H6         942.9129 -1048.6944  -690.8908 H6            1 RES     
   22938 H6         943.0221 -1049.1478  -692.5935 H6            1 RES     
   22939 H6         940.5355 -1049.4621  -690.7716 H6            1 RES     
   22940 H6         940.7843 -1048.1950  -692.0333 H6            1 RES     
   22941 H6         940.5920 -1049.9137  -692.5229 H6            1 RES     
   22942 C0         942.2310 -1063.1072  -699.7464 C0            1 RES     
   22943 C0         941.1436 -1062.6375  -700.7438 C0            1 RES     
   22944 C0         941.0547 -1063.3657  -702.1024 C0            1 RES     
   22945 C0         942.1044 -1063.0031  -703.1820 C0            1 RES     
   22946 C0         942.2403 -1061.4805  -703.3914 C0            1 RES     
   22947 C0         942.9430 -1061.0550  -704.6888 C0            1 RES     
   22948 C0         941.9891 -1061.1142  -705.8932 C0            1 RES     
   22949 C0         942.6612 -1060.5990  -707.1744 C0            1 RES     
   22950 C0         941.6369 -1060.4919  -708.3118 C0            1 RES     
   22951 C0         942.1949 -1060.2511  -709.7312 C0            1 RES     
   22952 C0         942.9684 -1058.9465  -710.0185 C0            1 RES     
   22953 C0         944.4336 -1058.9588  -709.5367 C0            1 RES     
   22954 C0         945.2526 -1057.7023  -709.9016 C0            1 RES     
   22955 C0         945.8375 -1057.6197  -711.3338 C0            1 RES     
   22956 C0         944.8687 -1057.4710  -712.5170 C0            1 RES     
   22957 C0         943.9608 -1056.2493  -712.3913 C0            1 RES     
   22958 H6         943.2213 -1063.1907  -700.2443 H6            1 RES     
   22959 H6         941.9265 -1064.1378  -699.4561 H6            1 RES     
   22960 H6         940.1744 -1062.8370  -700.2416 H6            1 RES     
   22961 H6         941.1856 -1061.5597  -700.9500 H6            1 RES     
   22962 H6         941.0165 -1064.4662  -701.9543 H6            1 RES     
   22963 H6         940.0765 -1063.0607  -702.5373 H6            1 RES     
   22964 H6         943.1039 -1063.4240  -702.9379 H6            1 RES     
   22965 H6         941.7540 -1063.4824  -704.1206 H6            1 RES     
   22966 H6         941.2520 -1060.9718  -703.3500 H6            1 RES     
   22967 H6         942.8573 -1061.1143  -702.5603 H6            1 RES     
   22968 H6         943.8689 -1061.6498  -704.8491 H6            1 RES     
   22969 H6         943.2342 -1059.9885  -704.5723 H6            1 RES     
   22970 H6         941.6269 -1062.1509  -706.0560 H6            1 RES     
   22971 H6         941.1134 -1060.4635  -705.6686 H6            1 RES     
   22972 H6         943.0645 -1059.5890  -706.9671 H6            1 RES     
   22973 H6         943.4811 -1061.2959  -707.4513 H6            1 RES     
   22974 H6         941.0840 -1061.4555  -708.3688 H6            1 RES     
   22975 H6         940.9018 -1059.6954  -708.0586 H6            1 RES     
   22976 H6         942.8072 -1061.1193  -710.0574 H6            1 RES     
   22977 H6         941.2923 -1060.2274  -710.3825 H6            1 RES     
   22978 H6         942.4139 -1058.0692  -709.6203 H6            1 RES     
   22979 H6         942.9741 -1058.8619  -711.1124 H6            1 RES     
   22980 H6         944.4278 -1058.9954  -708.4383 H6            1 RES     
   22981 H6         944.9689 -1059.8622  -709.9009 H6            1 RES     
   22982 H6         946.1518 -1057.7307  -709.2460 H6            1 RES     
   22983 H6         944.6932 -1056.7821  -709.6303 H6            1 RES     
   22984 H6         946.5086 -1056.7325  -711.3525 H6            1 RES     
   22985 H6         946.4715 -1058.5152  -711.5137 H6            1 RES     
   22986 H6         945.4773 -1057.3573  -713.4406 H6            1 RES     
   22987 H6         944.2726 -1058.3884  -712.6629 H6            1 RES     
   22988 H6         944.5705 -1055.3251  -712.3024 H6            1 RES     
   22989 H6         943.3225 -1056.1689  -713.2961 H6            1 RES     
   22990 H6         943.2985 -1056.3374  -711.5060 H6            1 RES     
   22991 C0         950.9354 -1070.4725  -693.6623 C0            1 RES     
   22992 C1         949.5962 -1069.7569  -693.3888 C1            1 RES     
   22993 C1         948.7973 -1070.3519  -692.2976 C1            1 RES     
   22994 S2         947.0775 -1070.1298  -692.7781 S2            1 RES     
   22995 C1         947.6871 -1068.6017  -693.5248 C1            1 RES     
   22996 C1         949.0031 -1068.7013  -693.9359 C1            1 RES     
   22997 C1         949.4428 -1071.6532  -692.2090 C1            1 RES     
   22998 C1         950.6168 -1071.7543  -692.8975 C1            1 RES     
   22999 C1         951.2463 -1072.9991  -692.7169 C1            1 RES     
   23000 C1         950.5212 -1073.8232  -691.8231 C1            1 RES     
   23001 S2         949.1355 -1072.9981  -691.2907 S2            1 RES     
   23002 H3         949.4127 -1068.0616  -694.7003 H3            1 RES     
   23003 H3         952.1789 -1073.2814  -693.1894 H3            1 RES     
   23004 N4         951.6980 -1075.9576  -692.1789 N4            1 RES     
   23005 C1         952.0048 -1077.2566  -691.8877 C1            1 RES     
   23006 C1         951.4807 -1077.8802  -690.7490 C1            1 RES     
   23007 C1         950.6430 -1077.1444  -689.9202 C1            1 RES     
   23008 N4         950.0946 -1077.6359  -688.7822 N4            1 RES     
   23009 S2         949.2280 -1076.3453  -688.2245 S2            1 RES     
   23010 N4         949.4958 -1075.1749  -689.3593 N4            1 RES     
   23011 C1         950.3168 -1075.7994  -690.2444 C1            1 RES     
   23012 C1         950.8604 -1075.2055  -691.4039 C1            1 RES     
   23013 H5         952.6560 -1077.8148  -692.5480 H5            1 RES     
   23014 C0         952.1055 -1069.7312  -692.9374 C0            1 RES     
   23015 C0         952.3726 -1068.3238  -693.4803 C0            1 RES     
   23016 C0         953.4052 -1067.4885  -692.7170 C0            1 RES     
   23017 C0         953.0571 -1067.1665  -691.2550 C0            1 RES     
   23018 C0         951.6091 -1066.6703  -691.0642 C0            1 RES     
   23019 C0         951.3786 -1066.0859  -689.6653 C0            1 RES     
   23020 C0         951.9162 -1064.6489  -689.5795 C0            1 RES     
   23021 C0         951.7552 -1064.0692  -688.1736 C0            1 RES     
   23022 C0         952.0903 -1062.5745  -688.1714 C0            1 RES     
   23023 C0         952.2632 -1061.9132  -686.7894 C0            1 RES     
   23024 C0         951.0862 -1061.9800  -685.7957 C0            1 RES     
   23025 C0         950.9923 -1063.3202  -685.0325 C0            1 RES     
   23026 C0         949.8687 -1063.3989  -683.9798 C0            1 RES     
   23027 C0         950.1372 -1062.7510  -682.6001 C0            1 RES     
   23028 C0         950.2796 -1061.2237  -682.5236 C0            1 RES     
   23029 C0         949.0674 -1060.4859  -683.0887 C0            1 RES     
   23030 H6         951.8320 -1069.6407  -691.8648 H6            1 RES     
   23031 H6         953.0385 -1070.3335  -692.9935 H6            1 RES     
   23032 H6         952.7606 -1068.4218  -694.4929 H6            1 RES     
   23033 H6         951.4340 -1067.7405  -693.5156 H6            1 RES     
   23034 H6         954.4050 -1067.9726  -692.7557 H6            1 RES     
   23035 H6         953.4794 -1066.5210  -693.2626 H6            1 RES     
   23036 H6         953.2007 -1068.0654  -690.6169 H6            1 RES     
   23037 H6         953.7924 -1066.4035  -690.9261 H6            1 RES     
   23038 H6         951.3274 -1065.9091  -691.8245 H6            1 RES     
   23039 H6         950.9385 -1067.5466  -691.1947 H6            1 RES     
   23040 H6         951.8273 -1066.7526  -688.8959 H6            1 RES     
   23041 H6         950.2833 -1066.0328  -689.4798 H6            1 RES     
   23042 H6         952.9907 -1064.6019  -689.8527 H6            1 RES     
   23043 H6         951.3416 -1064.0294  -690.3047 H6            1 RES     
   23044 H6         950.6978 -1064.1907  -687.8628 H6            1 RES     
   23045 H6         952.4332 -1064.6248  -687.4894 H6            1 RES     
   23046 H6         953.0555 -1062.4200  -688.7027 H6            1 RES     
   23047 H6         951.2997 -1062.0417  -688.7460 H6            1 RES     
   23048 H6         953.1800 -1062.2940  -686.2899 H6            1 RES     
   23049 H6         952.4394 -1060.8376  -687.0153 H6            1 RES     
   23050 H6         950.1320 -1061.7253  -686.3056 H6            1 RES     
   23051 H6         951.2921 -1061.1888  -685.0649 H6            1 RES     
   23052 H6         950.7645 -1064.1149  -685.7564 H6            1 RES     
   23053 H6         951.9620 -1063.5774  -684.5537 H6            1 RES     
   23054 H6         949.7470 -1064.4814  -683.7503 H6            1 RES     
   23055 H6         948.9064 -1063.0586  -684.4170 H6            1 RES     
   23056 H6         949.2820 -1063.0313  -681.9463 H6            1 RES     
   23057 H6         951.0511 -1063.2079  -682.1612 H6            1 RES     
   23058 H6         950.3887 -1060.9466  -681.4528 H6            1 RES     
   23059 H6         951.2080 -1060.8856  -683.0154 H6            1 RES     
   23060 H6         948.1461 -1060.7918  -682.5494 H6            1 RES     
   23061 H6         949.2090 -1059.3921  -682.9619 H6            1 RES     
   23062 H6         948.9439 -1060.6956  -684.1706 H6            1 RES     
   23063 C0         951.2330 -1070.8200  -695.1794 C0            1 RES     
   23064 C0         950.8699 -1069.7145  -696.2011 C0            1 RES     
   23065 C0         951.3016 -1069.9253  -697.6686 C0            1 RES     
   23066 C0         952.7874 -1069.6704  -698.0241 C0            1 RES     
   23067 C0         953.3002 -1068.3136  -697.4981 C0            1 RES     
   23068 C0         954.6051 -1067.8124  -698.1337 C0            1 RES     
   23069 C0         954.3524 -1067.1618  -699.5037 C0            1 RES     
   23070 C0         955.6409 -1066.5750  -700.0988 C0            1 RES     
   23071 C0         955.3283 -1065.7716  -701.3681 C0            1 RES     
   23072 C0         956.5317 -1065.3447  -702.2363 C0            1 RES     
   23073 C0         957.5854 -1064.3903  -701.6351 C0            1 RES     
   23074 C0         958.6076 -1065.0778  -700.7070 C0            1 RES     
   23075 C0         959.7281 -1064.1597  -700.1738 C0            1 RES     
   23076 C0         960.9297 -1063.8786  -701.1103 C0            1 RES     
   23077 C0         960.6947 -1063.0453  -702.3795 C0            1 RES     
   23078 C0         960.0948 -1061.6718  -702.0855 C0            1 RES     
   23079 H6         952.3029 -1071.1086  -695.2656 H6            1 RES     
   23080 H6         950.6327 -1071.7045  -695.4900 H6            1 RES     
   23081 H6         949.7609 -1069.6848  -696.2244 H6            1 RES     
   23082 H6         951.2143 -1068.7172  -695.8965 H6            1 RES     
   23083 H6         950.9837 -1070.9269  -698.0295 H6            1 RES     
   23084 H6         950.7311 -1069.1707  -698.2553 H6            1 RES     
   23085 H6         953.4447 -1070.4788  -697.6370 H6            1 RES     
   23086 H6         952.8426 -1069.6894  -699.1332 H6            1 RES     
   23087 H6         952.5329 -1067.5156  -697.6075 H6            1 RES     
   23088 H6         953.5026 -1068.4601  -696.4289 H6            1 RES     
   23089 H6         955.3589 -1068.6285  -698.1822 H6            1 RES     
   23090 H6         955.0065 -1067.0110  -697.4759 H6            1 RES     
   23091 H6         953.9182 -1067.8972  -700.2130 H6            1 RES     
   23092 H6         953.6218 -1066.3335  -699.3598 H6            1 RES     
   23093 H6         956.0838 -1065.8912  -699.3491 H6            1 RES     
   23094 H6         956.3398 -1067.4082  -700.3261 H6            1 RES     
   23095 H6         954.6944 -1066.4039  -702.0282 H6            1 RES     
   23096 H6         954.7326 -1064.8743  -701.0871 H6            1 RES     
   23097 H6         957.0430 -1066.2390  -702.6532 H6            1 RES     
   23098 H6         956.0746 -1064.8025  -703.0945 H6            1 RES     
   23099 H6         957.0909 -1063.5302  -701.1336 H6            1 RES     
   23100 H6         958.1297 -1063.9956  -702.5021 H6            1 RES     
   23101 H6         958.0704 -1065.4315  -699.8157 H6            1 RES     
   23102 H6         959.0643 -1065.9639  -701.1984 H6            1 RES     
   23103 H6         960.1792 -1064.7060  -699.3153 H6            1 RES     
   23104 H6         959.2983 -1063.2226  -699.7608 H6            1 RES     
   23105 H6         961.6862 -1063.3346  -700.5023 H6            1 RES     
   23106 H6         961.3845 -1064.8480  -701.4099 H6            1 RES     
   23107 H6         961.6797 -1062.8951  -702.8732 H6            1 RES     
   23108 H6         960.0753 -1063.5949  -703.1092 H6            1 RES     
   23109 H6         960.7544 -1061.1043  -701.3952 H6            1 RES     
   23110 H6         959.9963 -1061.1014  -703.0329 H6            1 RES     
   23111 H6         959.0872 -1061.7685  -701.6323 H6            1 RES     
   23112 C0         954.3456 -1082.2939  -690.1107 C0            1 RES     
   23113 C1         953.2071 -1081.2535  -690.0679 C1            1 RES     
   23114 C1         951.8854 -1081.8086  -689.7103 C1            1 RES     
   23115 S2         950.6854 -1080.8431  -690.6408 S2            1 RES     
   23116 C1         951.8619 -1079.4963  -690.3842 C1            1 RES     
   23117 C1         953.1662 -1079.9436  -690.2866 C1            1 RES     
   23118 C1         952.1425 -1083.2197  -689.9567 C1            1 RES     
   23119 C1         953.4576 -1083.5348  -690.1411 C1            1 RES     
   23120 C1         953.6681 -1084.9172  -690.2930 C1            1 RES     
   23121 C1         952.4593 -1085.6435  -690.1697 C1            1 RES     
   23122 S2         951.1786 -1084.5657  -689.8828 S2            1 RES     
   23123 H3         954.0069 -1079.3031  -690.4968 H3            1 RES     
   23124 H3         954.6377 -1085.3680  -690.4641 H3            1 RES     
   23125 N4         953.2218 -1087.8535  -690.9453 N4            1 RES     
   23126 C1         953.0925 -1089.1985  -691.1467 C1            1 RES     
   23127 C1         951.9778 -1089.8932  -690.6618 C1            1 RES     
   23128 C1         951.0074 -1089.1815  -689.9677 C1            1 RES     
   23129 N4         949.8979 -1089.7504  -689.4359 N4            1 RES     
   23130 S2         949.1403 -1088.4584  -688.7399 S2            1 RES     
   23131 N4         950.1400 -1087.1884  -689.0819 N4            1 RES     
   23132 C1         951.1448 -1087.7791  -689.7812 C1            1 RES     
   23133 C1         952.2803 -1087.1116  -690.2888 C1            1 RES     
   23134 H5         953.8572 -1089.7349  -691.6936 H5            1 RES     
   23135 C0         955.1455 -1082.2798  -688.7676 C0            1 RES     
   23136 C0         955.9077 -1080.9744  -688.5188 C0            1 RES     
   23137 C0         956.5898 -1080.8384  -687.1540 C0            1 RES     
   23138 C0         955.6553 -1080.8573  -685.9338 C0            1 RES     
   23139 C0         954.4205 -1079.9466  -686.0927 C0            1 RES     
   23140 C0         953.6681 -1079.7582  -684.7699 C0            1 RES     
   23141 C0         954.3672 -1078.7105  -683.8894 C0            1 RES     
   23142 C0         953.6700 -1078.5536  -682.5375 C0            1 RES     
   23143 C0         954.2469 -1077.3565  -681.7757 C0            1 RES     
   23144 C0         953.8630 -1077.2424  -680.2868 C0            1 RES     
   23145 C0         952.3669 -1077.1643  -679.9225 C0            1 RES     
   23146 C0         951.6607 -1078.5384  -679.8971 C0            1 RES     
   23147 C0         950.1798 -1078.5076  -679.4696 C0            1 RES     
   23148 C0         949.8762 -1078.4396  -677.9535 C0            1 RES     
   23149 C0         950.2589 -1077.1652  -677.1866 C0            1 RES     
   23150 C0         949.6345 -1075.9046  -677.7817 C0            1 RES     
   23151 H6         954.4161 -1082.4158  -687.9413 H6            1 RES     
   23152 H6         955.8542 -1083.1358  -688.7305 H6            1 RES     
   23153 H6         956.7050 -1080.9045  -689.2570 H6            1 RES     
   23154 H6         955.2342 -1080.1062  -688.6417 H6            1 RES     
   23155 H6         957.3704 -1081.6196  -687.0276 H6            1 RES     
   23156 H6         957.1025 -1079.8503  -687.1655 H6            1 RES     
   23157 H6         955.2983 -1081.8915  -685.7370 H6            1 RES     
   23158 H6         956.2764 -1080.5487  -685.0678 H6            1 RES     
   23159 H6         954.6909 -1078.9477  -686.4998 H6            1 RES     
   23160 H6         953.7380 -1080.4373  -686.8193 H6            1 RES     
   23161 H6         953.5548 -1080.7373  -684.2539 H6            1 RES     
   23162 H6         952.6516 -1079.3661  -684.9934 H6            1 RES     
   23163 H6         955.4273 -1078.9809  -683.7034 H6            1 RES     
   23164 H6         954.3424 -1077.7402  -684.4349 H6            1 RES     
   23165 H6         952.5921 -1078.3664  -682.7181 H6            1 RES     
   23166 H6         953.8154 -1079.4933  -681.9610 H6            1 RES     
   23167 H6         955.3577 -1077.4160  -681.7971 H6            1 RES     
   23168 H6         953.9482 -1076.4282  -682.3124 H6            1 RES     
   23169 H6         954.3353 -1078.0605  -679.7013 H6            1 RES     
   23170 H6         954.3313 -1076.2903  -679.9504 H6            1 RES     
   23171 H6         951.8429 -1076.4409  -680.5841 H6            1 RES     
   23172 H6         952.3478 -1076.7558  -678.9050 H6            1 RES     
   23173 H6         951.6570 -1078.9440  -680.9184 H6            1 RES     
   23174 H6         952.2122 -1079.2605  -679.2568 H6            1 RES     
   23175 H6         949.7551 -1079.4868  -679.7861 H6            1 RES     
   23176 H6         949.6308 -1077.7271  -680.0374 H6            1 RES     
   23177 H6         948.7766 -1078.5674  -677.8442 H6            1 RES     
   23178 H6         950.3602 -1079.3060  -677.4517 H6            1 RES     
   23179 H6         949.8943 -1077.2755  -676.1424 H6            1 RES     
   23180 H6         951.3549 -1077.0607  -677.1104 H6            1 RES     
   23181 H6         948.5280 -1075.9973  -677.8022 H6            1 RES     
   23182 H6         949.9080 -1075.0276  -677.1584 H6            1 RES     
   23183 H6         950.0051 -1075.7263  -678.8116 H6            1 RES     
   23184 C0         955.2581 -1082.2628  -691.4058 C0            1 RES     
   23185 C0         955.6508 -1080.8531  -691.9121 C0            1 RES     
   23186 C0         956.6811 -1080.7648  -693.0588 C0            1 RES     
   23187 C0         958.1732 -1080.9774  -692.7021 C0            1 RES     
   23188 C0         958.6251 -1080.1212  -691.5007 C0            1 RES     
   23189 C0         960.1441 -1079.9678  -691.3366 C0            1 RES     
   23190 C0         960.7093 -1078.8976  -692.2849 C0            1 RES     
   23191 C0         962.2116 -1078.6745  -692.0567 C0            1 RES     
   23192 C0         962.7071 -1077.4771  -692.8784 C0            1 RES     
   23193 C0         964.2359 -1077.2838  -692.9755 C0            1 RES     
   23194 C0         965.0367 -1077.0026  -691.6862 C0            1 RES     
   23195 C0         965.3346 -1078.2562  -690.8385 C0            1 RES     
   23196 C0         966.2181 -1078.0113  -689.5966 C0            1 RES     
   23197 C0         967.7497 -1077.9260  -689.8130 C0            1 RES     
   23198 C0         968.3174 -1076.7306  -690.5936 C0            1 RES     
   23199 C0         967.9304 -1075.3850  -689.9832 C0            1 RES     
   23200 H6         956.1594 -1082.8829  -691.2099 H6            1 RES     
   23201 H6         954.7203 -1082.7335  -692.2593 H6            1 RES     
   23202 H6         954.7179 -1080.4151  -692.3234 H6            1 RES     
   23203 H6         955.9942 -1080.1877  -691.1089 H6            1 RES     
   23204 H6         956.3864 -1081.4272  -693.9008 H6            1 RES     
   23205 H6         956.6198 -1079.7174  -693.4306 H6            1 RES     
   23206 H6         958.3937 -1082.0454  -692.4867 H6            1 RES     
   23207 H6         958.7470 -1080.6879  -693.6078 H6            1 RES     
   23208 H6         958.1755 -1079.1041  -691.5307 H6            1 RES     
   23209 H6         958.2587 -1080.6392  -690.6046 H6            1 RES     
   23210 H6         960.6541 -1080.9495  -691.4498 H6            1 RES     
   23211 H6         960.3293 -1079.6002  -690.3039 H6            1 RES     
   23212 H6         960.5334 -1079.1798  -693.3441 H6            1 RES     
   23213 H6         960.1759 -1077.9417  -692.0791 H6            1 RES     
   23214 H6         962.3656 -1078.4530  -690.9830 H6            1 RES     
   23215 H6         962.7567 -1079.5987  -692.3453 H6            1 RES     
   23216 H6         962.3566 -1077.6099  -693.9258 H6            1 RES     
   23217 H6         962.2372 -1076.5499  -692.4803 H6            1 RES     
   23218 H6         964.6991 -1078.1376  -693.5154 H6            1 RES     
   23219 H6         964.3602 -1076.3855  -693.6211 H6            1 RES     
   23220 H6         964.5408 -1076.2101  -691.0846 H6            1 RES     
   23221 H6         965.9942 -1076.5974  -692.0366 H6            1 RES     
   23222 H6         964.3796 -1078.6348  -690.4479 H6            1 RES     
   23223 H6         965.7883 -1079.0609  -691.4565 H6            1 RES     
   23224 H6         966.0878 -1078.9113  -688.9547 H6            1 RES     
   23225 H6         965.8350 -1077.1484  -689.0119 H6            1 RES     
   23226 H6         968.2129 -1077.9007  -688.8018 H6            1 RES     
   23227 H6         968.0938 -1078.8601  -690.3087 H6            1 RES     
   23228 H6         969.4263 -1076.8122  -690.5786 H6            1 RES     
   23229 H6         968.0288 -1076.7751  -691.6580 H6            1 RES     
   23230 H6         968.2758 -1075.3279  -688.9291 H6            1 RES     
   23231 H6         968.4101 -1074.5664  -690.5597 H6            1 RES     
   23232 H6         966.8319 -1075.2361  -690.0171 H6            1 RES     
   23233 C0         953.2672 -1095.0252  -690.9713 C0            1 RES     
   23234 C1         952.4742 -1093.7033  -690.9075 C1            1 RES     
   23235 C1         951.0632 -1093.8163  -691.3308 C1            1 RES     
   23236 S2         950.6682 -1092.2516  -692.1267 S2            1 RES     
   23237 C1         951.8154 -1091.5671  -690.9104 C1            1 RES     
   23238 C1         952.7987 -1092.4671  -690.5445 C1            1 RES     
   23239 C1         951.1265 -1095.0839  -692.0429 C1            1 RES     
   23240 C1         952.2797 -1095.7880  -691.8501 C1            1 RES     
   23241 C1         952.2635 -1097.0411  -692.4887 C1            1 RES     
   23242 C1         951.0279 -1097.2776  -693.1377 C1            1 RES     
   23243 S2         950.0036 -1095.9425  -692.9078 S2            1 RES     
   23244 H3         953.7439 -1092.1464  -690.1382 H3            1 RES     
   23245 H3         953.0880 -1097.7428  -692.4688 H3            1 RES     
   23246 N4         951.6216 -1099.2795  -694.4443 N4            1 RES     
   23247 C1         951.3453 -1100.3609  -695.2320 C1            1 RES     
   23248 C1         950.0235 -1100.7103  -695.5339 C1            1 RES     
   23249 C1         948.9991 -1099.9317  -695.0101 C1            1 RES     
   23250 N4         947.6839 -1100.1858  -695.2176 N4            1 RES     
   23251 S2         946.9538 -1098.9730  -694.3669 S2            1 RES     
   23252 N4         948.2207 -1098.1156  -693.7432 N4            1 RES     
   23253 C1         949.3006 -1098.7982  -694.2071 C1            1 RES     
   23254 C1         950.6458 -1098.4738  -693.9281 C1            1 RES     
   23255 H5         952.1573 -1100.9528  -695.6343 H5            1 RES     
   23256 C0         953.3130 -1095.7002  -689.5620 C0            1 RES     
   23257 C0         954.1009 -1094.8988  -688.5209 C0            1 RES     
   23258 C0         954.0590 -1095.4294  -687.0845 C0            1 RES     
   23259 C0         952.6717 -1095.4642  -686.4240 C0            1 RES     
   23260 C0         951.8673 -1094.1623  -686.6175 C0            1 RES     
   23261 C0         950.6271 -1094.1106  -685.7171 C0            1 RES     
   23262 C0         951.0089 -1093.6998  -684.2863 C0            1 RES     
   23263 C0         949.7960 -1093.7047  -683.3551 C0            1 RES     
   23264 C0         950.1589 -1093.0823  -682.0034 C0            1 RES     
   23265 C0         949.1405 -1093.2797  -680.8628 C0            1 RES     
   23266 C0         947.7001 -1092.7718  -681.0740 C0            1 RES     
   23267 C0         946.8157 -1093.7351  -681.8970 C0            1 RES     
   23268 C0         945.3489 -1093.2930  -682.0706 C0            1 RES     
   23269 C0         944.3773 -1093.5686  -680.8978 C0            1 RES     
   23270 C0         944.5865 -1092.8085  -679.5797 C0            1 RES     
   23271 C0         944.5816 -1091.2920  -679.7622 C0            1 RES     
   23272 H6         952.2666 -1095.7973  -689.2024 H6            1 RES     
   23273 H6         953.7356 -1096.7258  -689.6379 H6            1 RES     
   23274 H6         955.1503 -1094.9107  -688.8109 H6            1 RES     
   23275 H6         953.7518 -1093.8499  -688.4980 H6            1 RES     
   23276 H6         954.5151 -1096.4415  -687.0285 H6            1 RES     
   23277 H6         954.6960 -1094.7406  -686.4854 H6            1 RES     
   23278 H6         952.0705 -1096.3053  -686.8327 H6            1 RES     
   23279 H6         952.8496 -1095.6733  -685.3490 H6            1 RES     
   23280 H6         952.4880 -1093.2589  -686.4295 H6            1 RES     
   23281 H6         951.5346 -1094.1326  -687.6772 H6            1 RES     
   23282 H6         950.0928 -1095.0860  -685.7493 H6            1 RES     
   23283 H6         949.9397 -1093.3274  -686.1057 H6            1 RES     
   23284 H6         951.7753 -1094.3803  -683.8609 H6            1 RES     
   23285 H6         951.4373 -1092.6731  -684.3328 H6            1 RES     
   23286 H6         948.9956 -1093.0927  -683.8180 H6            1 RES     
   23287 H6         949.4620 -1094.7574  -683.2259 H6            1 RES     
   23288 H6         951.1089 -1093.5340  -681.6412 H6            1 RES     
   23289 H6         950.3403 -1091.9953  -682.1604 H6            1 RES     
   23290 H6         949.1058 -1094.3471  -680.5550 H6            1 RES     
   23291 H6         949.5660 -1092.7088  -680.0073 H6            1 RES     
   23292 H6         947.7085 -1091.7468  -681.5040 H6            1 RES     
   23293 H6         947.2768 -1092.7036  -680.0647 H6            1 RES     
   23294 H6         947.2218 -1093.7912  -682.9165 H6            1 RES     
   23295 H6         946.8413 -1094.7627  -681.4739 H6            1 RES     
   23296 H6         944.9459 -1093.9097  -682.9052 H6            1 RES     
   23297 H6         945.3021 -1092.2361  -682.4077 H6            1 RES     
   23298 H6         943.3584 -1093.3122  -681.2631 H6            1 RES     
   23299 H6         944.3832 -1094.6582  -680.6755 H6            1 RES     
   23300 H6         943.7535 -1093.0802  -678.8958 H6            1 RES     
   23301 H6         945.5091 -1093.1387  -679.0721 H6            1 RES     
   23302 H6         943.6257 -1090.9638  -680.2225 H6            1 RES     
   23303 H6         944.6886 -1090.8007  -678.7724 H6            1 RES     
   23304 H6         945.4261 -1090.9666  -680.4031 H6            1 RES     
   23305 C0         954.6740 -1094.9495  -691.6967 C0            1 RES     
   23306 C0         955.5268 -1093.6988  -691.3709 C0            1 RES     
   23307 C0         956.9746 -1093.6594  -691.9061 C0            1 RES     
   23308 C0         958.0406 -1094.4969  -691.1571 C0            1 RES     
   23309 C0         958.0200 -1094.2593  -689.6327 C0            1 RES     
   23310 C0         959.2723 -1094.7267  -688.8770 C0            1 RES     
   23311 C0         960.4181 -1093.7086  -688.9989 C0            1 RES     
   23312 C0         961.6391 -1094.1272  -688.1666 C0            1 RES     
   23313 C0         962.6894 -1093.0087  -688.1548 C0            1 RES     
   23314 C0         964.0828 -1093.3675  -687.5947 C0            1 RES     
   23315 C0         964.2070 -1093.7910  -686.1156 C0            1 RES     
   23316 C0         963.8129 -1095.2566  -685.8403 C0            1 RES     
   23317 C0         964.0235 -1095.7284  -684.3857 C0            1 RES     
   23318 C0         965.4554 -1096.1485  -683.9695 C0            1 RES     
   23319 C0         966.5474 -1095.0702  -683.8981 C0            1 RES     
   23320 C0         966.1861 -1093.9202  -682.9601 C0            1 RES     
   23321 H6         955.2316 -1095.8840  -691.4702 H6            1 RES     
   23322 H6         954.5298 -1094.9177  -692.8001 H6            1 RES     
   23323 H6         955.0097 -1092.8503  -691.8648 H6            1 RES     
   23324 H6         955.5664 -1093.4730  -690.2969 H6            1 RES     
   23325 H6         956.9959 -1093.8889  -692.9930 H6            1 RES     
   23326 H6         957.3038 -1092.6025  -691.7891 H6            1 RES     
   23327 H6         957.9187 -1095.5840  -691.3541 H6            1 RES     
   23328 H6         959.0215 -1094.1840  -691.5736 H6            1 RES     
   23329 H6         957.8472 -1093.1881  -689.3876 H6            1 RES     
   23330 H6         957.1769 -1094.8469  -689.2459 H6            1 RES     
   23331 H6         959.5722 -1095.7466  -689.2035 H6            1 RES     
   23332 H6         959.0088 -1094.7737  -687.7980 H6            1 RES     
   23333 H6         960.7189 -1093.5819  -690.0599 H6            1 RES     
   23334 H6         960.0490 -1092.7303  -688.6153 H6            1 RES     
   23335 H6         961.3008 -1094.3039  -687.1274 H6            1 RES     
   23336 H6         962.0640 -1095.0575  -688.6008 H6            1 RES     
   23337 H6         962.8641 -1092.6896  -689.2061 H6            1 RES     
   23338 H6         962.2771 -1092.1354  -687.6013 H6            1 RES     
   23339 H6         964.5715 -1094.1317  -688.2368 H6            1 RES     
   23340 H6         964.6728 -1092.4294  -687.7003 H6            1 RES     
   23341 H6         963.6490 -1093.0872  -685.4606 H6            1 RES     
   23342 H6         965.2735 -1093.6796  -685.8832 H6            1 RES     
   23343 H6         962.7345 -1095.3573  -686.0272 H6            1 RES     
   23344 H6         964.3403 -1095.9509  -686.5295 H6            1 RES     
   23345 H6         963.4298 -1096.6647  -684.2861 H6            1 RES     
   23346 H6         963.5838 -1094.9986  -683.6735 H6            1 RES     
   23347 H6         965.3735 -1096.5930  -682.9528 H6            1 RES     
   23348 H6         965.8052 -1096.9532  -684.6526 H6            1 RES     
   23349 H6         967.4741 -1095.5515  -683.5159 H6            1 RES     
   23350 H6         966.8005 -1094.6908  -684.9032 H6            1 RES     
   23351 H6         965.9890 -1094.3061  -681.9375 H6            1 RES     
   23352 H6         967.0319 -1093.2025  -682.9128 H6            1 RES     
   23353 H6         965.2905 -1093.3776  -683.3255 H6            1 RES     
   23354 C0         950.2770 -1105.6225  -697.5093 C0            1 RES     
   23355 C1         949.8245 -1104.1843  -697.1818 C1            1 RES     
   23356 C1         948.7964 -1103.6443  -698.0952 C1            1 RES     
   23357 S2         949.1432 -1101.8838  -698.2304 S2            1 RES     
   23358 C1         949.6774 -1102.0562  -696.5131 C1            1 RES     
   23359 C1         950.1695 -1103.3178  -696.2355 C1            1 RES     
   23360 C1         948.9443 -1104.5774  -699.2023 C1            1 RES     
   23361 C1         949.7027 -1105.6770  -698.9223 C1            1 RES     
   23362 C1         949.7503 -1106.5898  -699.9914 C1            1 RES     
   23363 C1         948.9563 -1106.1565  -701.0803 C1            1 RES     
   23364 S2         948.2290 -1104.6711  -700.6942 S2            1 RES     
   23365 H3         950.8473 -1103.4992  -695.4175 H3            1 RES     
   23366 H3         950.3104 -1107.5164  -699.9734 H3            1 RES     
   23367 N4         949.6998 -1107.7567  -702.7989 N4            1 RES     
   23368 C1         949.6293 -1108.3791  -704.0130 C1            1 RES     
   23369 C1         948.5735 -1108.1162  -704.8943 C1            1 RES     
   23370 C1         947.5972 -1107.2088  -704.5025 C1            1 RES     
   23371 N4         946.5205 -1106.8919  -705.2626 N4            1 RES     
   23372 S2         945.7246 -1105.8047  -704.3076 S2            1 RES     
   23373 N4         946.6784 -1105.6935  -702.9633 N4            1 RES     
   23374 C1         947.6922 -1106.5541  -703.2444 C1            1 RES     
   23375 C1         948.7740 -1106.8409  -702.3841 C1            1 RES     
   23376 H5         950.4019 -1109.0798  -704.3022 H5            1 RES     
   23377 C0         949.5109 -1106.6502  -696.6143 C0            1 RES     
   23378 C0         949.8441 -1106.5366  -695.1234 C0            1 RES     
   23379 C0         949.0182 -1107.4129  -694.1764 C0            1 RES     
   23380 C0         947.5073 -1107.1316  -694.1510 C0            1 RES     
   23381 C0         947.1644 -1105.6311  -694.0492 C0            1 RES     
   23382 C0         945.6818 -1105.3978  -693.7346 C0            1 RES     
   23383 C0         945.4047 -1105.5955  -692.2361 C0            1 RES     
   23384 C0         943.9197 -1105.4312  -691.9103 C0            1 RES     
   23385 C0         943.7054 -1105.4119  -690.3936 C0            1 RES     
   23386 C0         942.2494 -1105.5503  -689.9057 C0            1 RES     
   23387 C0         941.2157 -1104.5137  -690.3894 C0            1 RES     
   23388 C0         940.6641 -1104.7993  -691.8042 C0            1 RES     
   23389 C0         939.5769 -1103.8223  -692.2946 C0            1 RES     
   23390 C0         938.1304 -1104.0563  -691.7962 C0            1 RES     
   23391 C0         937.8274 -1103.8494  -690.3048 C0            1 RES     
   23392 C0         938.2056 -1102.4545  -689.8106 C0            1 RES     
   23393 H6         948.4240 -1106.4599  -696.7401 H6            1 RES     
   23394 H6         949.7095 -1107.6880  -696.9605 H6            1 RES     
   23395 H6         950.8791 -1106.8449  -694.9855 H6            1 RES     
   23396 H6         949.7382 -1105.4896  -694.7842 H6            1 RES     
   23397 H6         949.1850 -1108.4898  -694.3955 H6            1 RES     
   23398 H6         949.4113 -1107.2134  -693.1543 H6            1 RES     
   23399 H6         947.0241 -1107.5346  -695.0674 H6            1 RES     
   23400 H6         947.1051 -1107.6977  -693.2857 H6            1 RES     
   23401 H6         947.7819 -1105.1152  -693.2817 H6            1 RES     
   23402 H6         947.3919 -1105.1715  -695.0348 H6            1 RES     
   23403 H6         945.0497 -1106.0547  -694.3724 H6            1 RES     
   23404 H6         945.4313 -1104.3407  -693.9729 H6            1 RES     
   23405 H6         945.7252 -1106.6016  -691.8947 H6            1 RES     
   23406 H6         945.9937 -1104.8315  -691.6801 H6            1 RES     
   23407 H6         943.5746 -1104.4622  -692.3243 H6            1 RES     
   23408 H6         943.3670 -1106.2771  -692.3744 H6            1 RES     
   23409 H6         944.2580 -1106.2644  -689.9400 H6            1 RES     
   23410 H6         944.1475 -1104.4719  -689.9936 H6            1 RES     
   23411 H6         941.8648 -1106.5709  -690.1191 H6            1 RES     
   23412 H6         942.3160 -1105.4533  -688.7989 H6            1 RES     
   23413 H6         941.6279 -1103.4849  -690.3048 H6            1 RES     
   23414 H6         940.3839 -1104.5961  -689.6796 H6            1 RES     
   23415 H6         941.4884 -1104.6970  -692.5236 H6            1 RES     
   23416 H6         940.2838 -1105.8408  -691.8833 H6            1 RES     
   23417 H6         939.5107 -1103.9741  -693.3955 H6            1 RES     
   23418 H6         939.9037 -1102.7725  -692.1397 H6            1 RES     
   23419 H6         937.4824 -1103.3503  -692.3610 H6            1 RES     
   23420 H6         937.8172 -1105.0862  -692.0751 H6            1 RES     
   23421 H6         936.7341 -1103.9866  -690.1589 H6            1 RES     
   23422 H6         938.3106 -1104.6273  -689.6890 H6            1 RES     
   23423 H6         937.6709 -1101.6802  -690.4003 H6            1 RES     
   23424 H6         937.9197 -1102.3511  -688.7429 H6            1 RES     
   23425 H6         939.2987 -1102.2867  -689.8939 H6            1 RES     
   23426 C0         951.8433 -1105.8557  -697.5638 C0            1 RES     
   23427 C0         952.6613 -1105.1583  -696.4493 C0            1 RES     
   23428 C0         954.1649 -1105.4945  -696.3470 C0            1 RES     
   23429 C0         954.5568 -1106.8438  -695.6955 C0            1 RES     
   23430 C0         953.8566 -1107.0752  -694.3402 C0            1 RES     
   23431 C0         954.4769 -1108.1677  -693.4573 C0            1 RES     
   23432 C0         955.7147 -1107.6510  -692.7056 C0            1 RES     
   23433 C0         956.2811 -1108.7114  -691.7499 C0            1 RES     
   23434 C0         957.3927 -1108.1104  -690.8796 C0            1 RES     
   23435 C0         958.2485 -1109.1009  -690.0607 C0            1 RES     
   23436 C0         957.5653 -1109.9558  -688.9721 C0            1 RES     
   23437 C0         956.8108 -1111.1873  -689.5135 C0            1 RES     
   23438 C0         956.2040 -1112.1092  -688.4343 C0            1 RES     
   23439 C0         957.1495 -1113.1255  -687.7465 C0            1 RES     
   23440 C0         958.2606 -1112.5928  -686.8288 C0            1 RES     
   23441 C0         957.7265 -1111.7213  -685.6938 C0            1 RES     
   23442 H6         952.0307 -1106.9513  -697.5717 H6            1 RES     
   23443 H6         952.2535 -1105.4501  -698.5159 H6            1 RES     
   23444 H6         952.6198 -1104.0747  -696.6847 H6            1 RES     
   23445 H6         952.2258 -1105.2895  -695.4498 H6            1 RES     
   23446 H6         954.6582 -1105.3849  -697.3366 H6            1 RES     
   23447 H6         954.5967 -1104.7156  -695.6791 H6            1 RES     
   23448 H6         954.3349 -1107.7015  -696.3669 H6            1 RES     
   23449 H6         955.6569 -1106.8030  -695.5487 H6            1 RES     
   23450 H6         953.8000 -1106.1382  -693.7434 H6            1 RES     
   23451 H6         952.8352 -1107.4003  -694.5786 H6            1 RES     
   23452 H6         954.6913 -1109.0818  -694.0532 H6            1 RES     
   23453 H6         953.7262 -1108.4307  -692.6806 H6            1 RES     
   23454 H6         956.5043 -1107.3364  -693.4198 H6            1 RES     
   23455 H6         955.4056 -1106.7650  -692.1055 H6            1 RES     
   23456 H6         955.4600 -1109.0499  -691.0888 H6            1 RES     
   23457 H6         956.6715 -1109.5603  -692.3511 H6            1 RES     
   23458 H6         958.1070 -1107.5829  -691.5496 H6            1 RES     
   23459 H6         956.9449 -1107.3516  -690.1994 H6            1 RES     
   23460 H6         958.8252 -1109.7653  -690.7398 H6            1 RES     
   23461 H6         958.9869 -1108.4567  -689.5324 H6            1 RES     
   23462 H6         956.9112 -1109.3232  -688.3334 H6            1 RES     
   23463 H6         958.3893 -1110.3151  -688.3430 H6            1 RES     
   23464 H6         955.9570 -1110.8276  -690.1046 H6            1 RES     
   23465 H6         957.4569 -1111.7902  -690.1876 H6            1 RES     
   23466 H6         955.4655 -1112.7487  -688.9680 H6            1 RES     
   23467 H6         955.6289 -1111.5138  -687.6939 H6            1 RES     
   23468 H6         956.5068 -1113.7875  -687.1248 H6            1 RES     
   23469 H6         957.6191 -1113.7628  -688.5275 H6            1 RES     
   23470 H6         958.7778 -1113.4687  -686.3797 H6            1 RES     
   23471 H6         959.0317 -1112.0541  -687.4063 H6            1 RES     
   23472 H6         956.9937 -1112.2913  -685.0841 H6            1 RES     
   23473 H6         958.5680 -1111.4102  -685.0398 H6            1 RES     
   23474 H6         957.2398 -1110.8076  -686.0915 H6            1 RES     
   23475 C0         948.7788 -1111.9656  -708.5324 C0            1 RES     
   23476 C1         948.5147 -1110.6266  -707.8129 C1            1 RES     
   23477 C1         948.1759 -1109.5055  -708.7136 C1            1 RES     
   23478 S2         948.8803 -1108.0374  -707.9476 S2            1 RES     
   23479 C1         948.4833 -1108.8902  -706.4052 C1            1 RES     
   23480 C1         948.5264 -1110.2659  -706.5342 C1            1 RES     
   23481 C1         948.6503 -1110.0577  -709.9737 C1            1 RES     
   23482 C1         948.9520 -1111.3881  -709.9345 C1            1 RES     
   23483 C1         949.3261 -1111.8969  -711.1913 C1            1 RES     
   23484 C1         949.2510 -1110.9039  -712.1972 C1            1 RES     
   23485 S2         948.7327 -1109.4401  -711.5093 S2            1 RES     
   23486 H3         948.6805 -1110.9144  -705.6874 H3            1 RES     
   23487 H3         949.6169 -1112.9251  -711.3673 H3            1 RES     
   23488 N4         950.3980 -1112.0825  -714.0308 N4            1 RES     
   23489 C1         950.7969 -1112.2491  -715.3268 C1            1 RES     
   23490 C1         950.3652 -1111.3720  -716.3292 C1            1 RES     
   23491 C1         949.5184 -1110.3295  -715.9741 C1            1 RES     
   23492 N4         949.0213 -1109.4328  -716.8608 N4            1 RES     
   23493 S2         948.0947 -1108.4632  -715.8971 S2            1 RES     
   23494 N4         948.2904 -1109.1090  -714.3892 N4            1 RES     
   23495 C1         949.1256 -1110.1564  -714.6190 C1            1 RES     
   23496 C1         949.5851 -1111.0578  -713.6347 C1            1 RES     
   23497 H5         951.4604 -1113.0649  -715.5831 H5            1 RES     
   23498 C0         947.4948 -1112.8572  -708.5099 C0            1 RES     
   23499 C0         947.0894 -1113.3173  -707.1061 C0            1 RES     
   23500 C0         945.7588 -1114.0685  -706.9978 C0            1 RES     
   23501 C0         944.5074 -1113.2760  -707.4081 C0            1 RES     
   23502 C0         944.4571 -1111.8556  -706.8088 C0            1 RES     
   23503 C0         943.0823 -1111.2009  -706.9900 C0            1 RES     
   23504 C0         942.0901 -1111.7156  -705.9354 C0            1 RES     
   23505 C0         940.6944 -1111.1242  -706.1377 C0            1 RES     
   23506 C0         939.7895 -1111.4754  -704.9526 C0            1 RES     
   23507 C0         938.2823 -1111.2098  -705.1393 C0            1 RES     
   23508 C0         937.8300 -1109.7744  -705.4745 C0            1 RES     
   23509 C0         937.9784 -1109.4088  -706.9684 C0            1 RES     
   23510 C0         937.4719 -1108.0047  -707.3541 C0            1 RES     
   23511 C0         935.9492 -1107.8299  -707.5694 C0            1 RES     
   23512 C0         935.0169 -1107.9756  -706.3576 C0            1 RES     
   23513 C0         935.3761 -1107.0273  -705.2154 C0            1 RES     
   23514 H6         946.6610 -1112.2552  -708.9294 H6            1 RES     
   23515 H6         947.6284 -1113.7443  -709.1667 H6            1 RES     
   23516 H6         947.8500 -1114.0081  -706.7457 H6            1 RES     
   23517 H6         947.0405 -1112.4538  -706.4173 H6            1 RES     
   23518 H6         945.7967 -1115.0161  -707.5776 H6            1 RES     
   23519 H6         945.6457 -1114.3368  -705.9233 H6            1 RES     
   23520 H6         944.4532 -1113.1858  -708.5148 H6            1 RES     
   23521 H6         943.6390 -1113.8840  -707.0804 H6            1 RES     
   23522 H6         944.7194 -1111.8513  -705.7281 H6            1 RES     
   23523 H6         945.2126 -1111.2425  -707.3452 H6            1 RES     
   23524 H6         942.7180 -1111.3625  -708.0287 H6            1 RES     
   23525 H6         943.1874 -1110.1057  -706.8275 H6            1 RES     
   23526 H6         942.0055 -1112.8217  -705.9652 H6            1 RES     
   23527 H6         942.4774 -1111.4195  -704.9344 H6            1 RES     
   23528 H6         940.7854 -1110.0205  -706.1927 H6            1 RES     
   23529 H6         940.2783 -1111.5329  -707.0844 H6            1 RES     
   23530 H6         939.8800 -1112.5636  -704.7393 H6            1 RES     
   23531 H6         940.1599 -1110.9244  -704.0592 H6            1 RES     
   23532 H6         937.8563 -1111.9080  -705.8917 H6            1 RES     
   23533 H6         937.8291 -1111.4743  -704.1576 H6            1 RES     
   23534 H6         938.3429 -1109.0412  -704.8151 H6            1 RES     
   23535 H6         936.7622 -1109.7526  -705.2258 H6            1 RES     
   23536 H6         939.0483 -1109.4076  -707.2192 H6            1 RES     
   23537 H6         937.4878 -1110.1666  -707.6170 H6            1 RES     
   23538 H6         937.9120 -1107.7905  -708.3540 H6            1 RES     
   23539 H6         937.8821 -1107.2424  -706.6587 H6            1 RES     
   23540 H6         935.8016 -1106.8036  -707.9720 H6            1 RES     
   23541 H6         935.6137 -1108.5431  -708.3539 H6            1 RES     
   23542 H6         933.9840 -1107.7407  -706.6943 H6            1 RES     
   23543 H6         934.9849 -1109.0205  -706.0036 H6            1 RES     
   23544 H6         935.3507 -1105.9746  -705.5681 H6            1 RES     
   23545 H6         934.6408 -1107.1459  -704.3921 H6            1 RES     
   23546 H6         936.3847 -1107.2536  -704.8138 H6            1 RES     
   23547 C0         950.1011 -1112.7274  -708.1054 C0            1 RES     
   23548 C0         950.4046 -1112.7382  -706.5870 C0            1 RES     
   23549 C0         951.5780 -1113.6141  -706.0971 C0            1 RES     
   23550 C0         951.3395 -1115.1408  -705.9907 C0            1 RES     
   23551 C0         950.0468 -1115.4885  -705.2235 C0            1 RES     
   23552 C0         949.9433 -1116.9398  -704.7326 C0            1 RES     
   23553 C0         950.7446 -1117.1566  -703.4384 C0            1 RES     
   23554 C0         950.5664 -1118.5813  -702.8933 C0            1 RES     
   23555 C0         951.2193 -1118.7125  -701.5110 C0            1 RES     
   23556 C0         951.3680 -1120.1408  -700.9437 C0            1 RES     
   23557 C0         950.0960 -1120.9669  -700.6570 C0            1 RES     
   23558 C0         949.4689 -1121.6198  -701.9058 C0            1 RES     
   23559 C0         948.2538 -1122.5302  -701.6275 C0            1 RES     
   23560 C0         948.5370 -1123.9755  -701.1470 C0            1 RES     
   23561 C0         949.1535 -1124.1808  -699.7548 C0            1 RES     
   23562 C0         948.3231 -1123.5503  -698.6387 C0            1 RES     
   23563 H6         950.0520 -1113.7611  -708.5110 H6            1 RES     
   23564 H6         950.9865 -1112.2386  -708.5704 H6            1 RES     
   23565 H6         950.6925 -1111.6967  -706.3346 H6            1 RES     
   23566 H6         949.5282 -1112.9893  -705.9748 H6            1 RES     
   23567 H6         952.4948 -1113.4061  -706.6892 H6            1 RES     
   23568 H6         951.7801 -1113.2804  -705.0545 H6            1 RES     
   23569 H6         951.3035 -1115.6196  -706.9932 H6            1 RES     
   23570 H6         952.2195 -1115.5495  -705.4503 H6            1 RES     
   23571 H6         949.8954 -1114.8159  -704.3505 H6            1 RES     
   23572 H6         949.2227 -1115.3326  -705.9322 H6            1 RES     
   23573 H6         950.2339 -1117.6499  -705.5375 H6            1 RES     
   23574 H6         948.8779 -1117.1266  -704.4761 H6            1 RES     
   23575 H6         951.8235 -1116.9567  -703.6070 H6            1 RES     
   23576 H6         950.3654 -1116.4379  -702.6766 H6            1 RES     
   23577 H6         949.4812 -1118.7751  -702.7903 H6            1 RES     
   23578 H6         951.0229 -1119.2966  -703.6105 H6            1 RES     
   23579 H6         952.2541 -1118.3102  -701.5797 H6            1 RES     
   23580 H6         950.6583 -1118.0791  -700.7878 H6            1 RES     
   23581 H6         952.0573 -1120.7382  -701.5786 H6            1 RES     
   23582 H6         951.8732 -1119.9969  -699.9622 H6            1 RES     
   23583 H6         949.3536 -1120.3575  -700.0973 H6            1 RES     
   23584 H6         950.4310 -1121.7703  -699.9890 H6            1 RES     
   23585 H6         949.0903 -1120.8163  -702.5531 H6            1 RES     
   23586 H6         950.2272 -1122.1897  -702.4851 H6            1 RES     
   23587 H6         947.7520 -1122.6683  -702.6116 H6            1 RES     
   23588 H6         947.5232 -1122.0123  -700.9707 H6            1 RES     
   23589 H6         947.5604 -1124.5085  -701.1495 H6            1 RES     
   23590 H6         949.1884 -1124.4798  -701.8938 H6            1 RES     
   23591 H6         949.2113 -1125.2754  -699.5681 H6            1 RES     
   23592 H6         950.1949 -1123.8165  -699.7214 H6            1 RES     
   23593 H6         947.2930 -1123.9657  -698.6448 H6            1 RES     
   23594 H6         948.7917 -1123.7752  -697.6576 H6            1 RES     
   23595 H6         948.2742 -1122.4485  -698.7555 H6            1 RES     
   23596 C0         951.5310 -1113.7757  -720.9072 C0            1 RES     
   23597 C1         951.2215 -1112.7085  -719.8369 C1            1 RES     
   23598 C1         951.5802 -1111.3295  -720.2275 C1            1 RES     
   23599 S2         952.1030 -1110.5155  -718.7103 S2            1 RES     
   23600 C1         950.8596 -1111.5779  -717.9426 C1            1 RES     
   23601 C1         950.6904 -1112.7707  -718.6206 C1            1 RES     
   23602 C1         952.4815 -1111.6194  -721.3328 C1            1 RES     
   23603 C1         952.4621 -1112.9161  -721.7579 C1            1 RES     
   23604 C1         953.2844 -1113.1321  -722.8784 C1            1 RES     
   23605 C1         953.8943 -1111.9315  -723.3145 C1            1 RES     
   23606 S2         953.4064 -1110.6519  -722.3099 S2            1 RES     
   23607 H3         950.2913 -1113.6489  -718.1403 H3            1 RES     
   23608 H3         953.4174 -1114.0945  -723.3567 H3            1 RES     
   23609 N4         955.5238 -1112.8514  -724.9162 N4            1 RES     
   23610 C1         956.4527 -1112.7625  -725.9141 C1            1 RES     
   23611 C1         956.7329 -1111.5352  -726.5269 C1            1 RES     
   23612 C1         956.0407 -1110.4099  -726.0973 C1            1 RES     
   23613 N4         956.2135 -1109.1754  -726.6298 N4            1 RES     
   23614 S2         955.1479 -1108.2644  -725.7568 S2            1 RES     
   23615 N4         954.4689 -1109.3502  -724.7131 N4            1 RES     
   23616 C1         955.0902 -1110.5126  -725.0454 C1            1 RES     
   23617 C1         954.8377 -1111.7662  -724.4478 C1            1 RES     
   23618 H5         956.9847 -1113.6498  -726.2321 H5            1 RES     
   23619 C0         950.2471 -1114.1010  -721.7377 C0            1 RES     
   23620 C0         949.1391 -1114.7728  -720.9203 C0            1 RES     
   23621 C0         947.8015 -1114.9823  -721.6368 C0            1 RES     
   23622 C0         947.0801 -1113.7048  -722.0949 C0            1 RES     
   23623 C0         947.0270 -1112.6083  -721.0112 C0            1 RES     
   23624 C0         946.0636 -1111.4748  -721.3836 C0            1 RES     
   23625 C0         944.6094 -1111.8776  -721.0926 C0            1 RES     
   23626 C0         943.6259 -1110.7863  -721.5170 C0            1 RES     
   23627 C0         942.2160 -1111.1150  -721.0165 C0            1 RES     
   23628 C0         941.0660 -1110.2752  -721.6076 C0            1 RES     
   23629 C0         941.1183 -1108.7437  -721.4376 C0            1 RES     
   23630 C0         942.0308 -1108.0351  -722.4637 C0            1 RES     
   23631 C0         942.0547 -1106.4965  -722.3686 C0            1 RES     
   23632 C0         940.8875 -1105.7229  -723.0279 C0            1 RES     
   23633 C0         939.4813 -1105.8680  -722.4275 C0            1 RES     
   23634 C0         939.4274 -1105.4978  -720.9466 C0            1 RES     
   23635 H6         949.8507 -1113.1415  -722.1322 H6            1 RES     
   23636 H6         950.5028 -1114.7400  -722.6110 H6            1 RES     
   23637 H6         949.4838 -1115.7666  -720.6393 H6            1 RES     
   23638 H6         948.9360 -1114.1950  -719.9997 H6            1 RES     
   23639 H6         947.9268 -1115.6624  -722.5071 H6            1 RES     
   23640 H6         947.1387 -1115.4943  -720.9034 H6            1 RES     
   23641 H6         947.5804 -1113.2794  -722.9919 H6            1 RES     
   23642 H6         946.0614 -1114.0211  -722.4000 H6            1 RES     
   23643 H6         946.7359 -1113.0184  -720.0194 H6            1 RES     
   23644 H6         948.0499 -1112.1847  -720.9178 H6            1 RES     
   23645 H6         946.2168 -1111.1787  -722.4450 H6            1 RES     
   23646 H6         946.2892 -1110.5937  -720.7434 H6            1 RES     
   23647 H6         944.3360 -1112.8148  -721.6201 H6            1 RES     
   23648 H6         944.5202 -1112.0522  -719.9966 H6            1 RES     
   23649 H6         943.9450 -1109.8285  -721.0584 H6            1 RES     
   23650 H6         943.6425 -1110.7166  -722.6266 H6            1 RES     
   23651 H6         941.9796 -1112.1719  -721.2713 H6            1 RES     
   23652 H6         942.2133 -1111.0266  -719.9069 H6            1 RES     
   23653 H6         940.9250 -1110.5148  -722.6837 H6            1 RES     
   23654 H6         940.1571 -1110.6323  -721.0736 H6            1 RES     
   23655 H6         941.3850 -1108.4774  -720.3920 H6            1 RES     
   23656 H6         940.0891 -1108.4077  -721.6122 H6            1 RES     
   23657 H6         943.0673 -1108.3508  -722.2803 H6            1 RES     
   23658 H6         941.7732 -1108.3343  -723.5028 H6            1 RES     
   23659 H6         942.9514 -1106.1736  -722.9440 H6            1 RES     
   23660 H6         942.2219 -1106.1777  -721.3182 H6            1 RES     
   23661 H6         941.1534 -1104.6440  -722.9770 H6            1 RES     
   23662 H6         940.8364 -1105.9994  -724.1038 H6            1 RES     
   23663 H6         938.8034 -1105.1843  -722.9829 H6            1 RES     
   23664 H6         939.0813 -1106.8833  -722.5920 H6            1 RES     
   23665 H6         939.7793 -1104.4549  -720.7986 H6            1 RES     
   23666 H6         938.3810 -1105.5765  -720.5843 H6            1 RES     
   23667 H6         940.0553 -1106.1841  -720.3428 H6            1 RES     
   23668 C0         952.3111 -1115.0569  -720.3964 C0            1 RES     
   23669 C0         951.8430 -1115.6243  -719.0338 C0            1 RES     
   23670 C0         952.4433 -1116.9706  -718.5738 C0            1 RES     
   23671 C0         951.8910 -1118.2631  -719.2243 C0            1 RES     
   23672 C0         950.3493 -1118.3242  -719.2095 C0            1 RES     
   23673 C0         949.7436 -1119.7127  -719.4603 C0            1 RES     
   23674 C0         949.7689 -1120.5777  -718.1895 C0            1 RES     
   23675 C0         949.0783 -1121.9315  -718.4114 C0            1 RES     
   23676 C0         948.9511 -1122.6927  -717.0852 C0            1 RES     
   23677 C0         948.5292 -1124.1755  -717.1709 C0            1 RES     
   23678 C0         947.1419 -1124.5251  -717.7504 C0            1 RES     
   23679 C0         947.0747 -1124.5052  -719.2912 C0            1 RES     
   23680 C0         945.7238 -1124.9476  -719.8928 C0            1 RES     
   23681 C0         945.4553 -1126.4689  -720.0085 C0            1 RES     
   23682 C0         945.2778 -1127.2852  -718.7191 C0            1 RES     
   23683 C0         944.1557 -1126.7537  -717.8295 C0            1 RES     
   23684 H6         952.2618 -1115.8326  -721.1910 H6            1 RES     
   23685 H6         953.3869 -1114.8116  -720.2495 H6            1 RES     
   23686 H6         952.1717 -1114.8839  -718.2755 H6            1 RES     
   23687 H6         950.7509 -1115.7064  -718.9542 H6            1 RES     
   23688 H6         953.5521 -1116.9472  -718.6405 H6            1 RES     
   23689 H6         952.1829 -1117.0566  -717.4950 H6            1 RES     
   23690 H6         952.2463 -1118.3778  -720.2713 H6            1 RES     
   23691 H6         952.3068 -1119.1045  -718.6304 H6            1 RES     
   23692 H6         949.9332 -1117.9319  -718.2554 H6            1 RES     
   23693 H6         950.0127 -1117.6770  -720.0302 H6            1 RES     
   23694 H6         950.2390 -1120.2091  -720.3234 H6            1 RES     
   23695 H6         948.6720 -1119.5643  -719.7166 H6            1 RES     
   23696 H6         950.8124 -1120.7455  -717.8500 H6            1 RES     
   23697 H6         949.2198 -1120.0289  -717.3908 H6            1 RES     
   23698 H6         948.0619 -1121.7369  -718.8049 H6            1 RES     
   23699 H6         949.6730 -1122.5188  -719.1435 H6            1 RES     
   23700 H6         949.9485 -1122.6949  -716.5927 H6            1 RES     
   23701 H6         948.2481 -1122.1414  -716.4212 H6            1 RES     
   23702 H6         949.3068 -1124.7678  -717.6997 H6            1 RES     
   23703 H6         948.5207 -1124.5218  -716.1130 H6            1 RES     
   23704 H6         946.3571 -1123.8807  -717.2981 H6            1 RES     
   23705 H6         946.9531 -1125.5537  -717.4182 H6            1 RES     
   23706 H6         947.2163 -1123.4668  -719.6222 H6            1 RES     
   23707 H6         947.8902 -1125.1148  -719.7370 H6            1 RES     
   23708 H6         945.7376 -1124.5967  -720.9491 H6            1 RES     
   23709 H6         944.8849 -1124.4168  -719.3950 H6            1 RES     
   23710 H6         944.5163 -1126.5824  -720.5945 H6            1 RES     
   23711 H6         946.2721 -1126.9323  -720.6039 H6            1 RES     
   23712 H6         945.0249 -1128.3280  -719.0106 H6            1 RES     
   23713 H6         946.2246 -1127.3535  -718.1560 H6            1 RES     
   23714 H6         943.1955 -1126.7428  -718.3878 H6            1 RES     
   23715 H6         944.0442 -1127.4123  -716.9427 H6            1 RES     
   23716 H6         944.3841 -1125.7284  -717.4739 H6            1 RES     
   23717 C0         959.4522 -1112.7360  -730.9154 C0            1 RES     
   23718 C1         958.8831 -1111.9955  -729.6873 C1            1 RES     
   23719 C1         959.6455 -1110.7935  -729.2912 C1            1 RES     
   23720 S2         959.5264 -1110.7122  -727.4975 S2            1 RES     
   23721 C1         957.8876 -1111.4225  -727.7694 C1            1 RES     
   23722 C1         957.8347 -1112.2146  -728.9011 C1            1 RES     
   23723 C1         960.8894 -1111.0532  -730.0006 C1            1 RES     
   23724 C1         960.8237 -1112.0662  -730.9127 C1            1 RES     
   23725 C1         962.0216 -1112.2273  -731.6320 C1            1 RES     
   23726 C1         962.9862 -1111.2612  -731.2580 C1            1 RES     
   23727 S2         962.3371 -1110.2487  -730.0588 S2            1 RES     
   23728 H3         957.0923 -1112.9860  -729.0241 H3            1 RES     
   23729 H3         962.1769 -1112.9851  -732.3899 H3            1 RES     
   23730 N4         964.9685 -1112.1970  -732.3812 N4            1 RES     
   23731 C1         966.2584 -1112.1638  -732.8300 C1            1 RES     
   23732 C1         967.0303 -1111.0017  -732.7112 C1            1 RES     
   23733 C1         966.4511 -1109.8816  -732.1281 C1            1 RES     
   23734 N4         967.0940 -1108.6976  -731.9791 N4            1 RES     
   23735 S2         965.9413 -1107.7610  -731.2568 S2            1 RES     
   23736 N4         964.6494 -1108.7794  -731.1042 N4            1 RES     
   23737 C1         965.1142 -1109.9350  -731.6484 C1            1 RES     
   23738 C1         964.3681 -1111.1260  -731.7810 C1            1 RES     
   23739 H5         966.6934 -1113.0481  -733.2776 H5            1 RES     
   23740 C0         958.6862 -1112.3101  -732.2099 C0            1 RES     
   23741 C0         957.2158 -1112.7395  -732.2245 C0            1 RES     
   23742 C0         956.3719 -1112.2253  -733.3950 C0            1 RES     
   23743 C0         956.2218 -1110.6988  -733.4922 C0            1 RES     
   23744 C0         955.8716 -1110.0300  -732.1470 C0            1 RES     
   23745 C0         955.4452 -1108.5676  -732.3231 C0            1 RES     
   23746 C0         953.9822 -1108.4781  -732.7849 C0            1 RES     
   23747 C0         953.5551 -1107.0303  -733.0293 C0            1 RES     
   23748 C0         952.0443 -1106.9532  -733.2700 C0            1 RES     
   23749 C0         951.5055 -1105.6177  -733.8205 C0            1 RES     
   23750 C0         951.7671 -1104.3341  -733.0073 C0            1 RES     
   23751 C0         953.1771 -1103.7394  -733.2210 C0            1 RES     
   23752 C0         953.4516 -1102.4172  -732.4771 C0            1 RES     
   23753 C0         952.9177 -1101.1137  -733.1185 C0            1 RES     
   23754 C0         951.3981 -1100.9053  -733.1968 C0            1 RES     
   23755 C0         950.7160 -1100.9946  -731.8330 C0            1 RES     
   23756 H6         958.7222 -1111.2017  -732.2717 H6            1 RES     
   23757 H6         959.1984 -1112.7106  -733.1118 H6            1 RES     
   23758 H6         957.1832 -1113.8258  -732.2902 H6            1 RES     
   23759 H6         956.7142 -1112.4261  -731.2904 H6            1 RES     
   23760 H6         956.7629 -1112.6155  -734.3596 H6            1 RES     
   23761 H6         955.3540 -1112.6515  -733.2485 H6            1 RES     
   23762 H6         957.1619 -1110.2417  -733.8704 H6            1 RES     
   23763 H6         955.4336 -1110.5165  -734.2515 H6            1 RES     
   23764 H6         955.0683 -1110.5780  -731.6075 H6            1 RES     
   23765 H6         956.7855 -1110.0568  -731.5157 H6            1 RES     
   23766 H6         956.1414 -1108.0495  -733.0192 H6            1 RES     
   23767 H6         955.5038 -1108.0602  -731.3351 H6            1 RES     
   23768 H6         953.8177 -1109.0508  -733.7211 H6            1 RES     
   23769 H6         953.3478 -1108.9224  -731.9849 H6            1 RES     
   23770 H6         953.7956 -1106.4358  -732.1247 H6            1 RES     
   23771 H6         954.1135 -1106.6481  -733.9118 H6            1 RES     
   23772 H6         951.7580 -1107.7254  -734.0180 H6            1 RES     
   23773 H6         951.5287 -1107.2008  -732.3150 H6            1 RES     
   23774 H6         951.8525 -1105.4610  -734.8646 H6            1 RES     
   23775 H6         950.4022 -1105.7585  -733.8626 H6            1 RES     
   23776 H6         951.5475 -1104.5042  -731.9310 H6            1 RES     
   23777 H6         951.0345 -1103.6103  -733.3840 H6            1 RES     
   23778 H6         953.9157 -1104.4506  -732.8257 H6            1 RES     
   23779 H6         953.3950 -1103.6037  -734.3025 H6            1 RES     
   23780 H6         954.5575 -1102.2900  -732.4882 H6            1 RES     
   23781 H6         953.1547 -1102.5060  -731.4108 H6            1 RES     
   23782 H6         953.3311 -1100.2729  -732.5190 H6            1 RES     
   23783 H6         953.3346 -1101.0225  -734.1454 H6            1 RES     
   23784 H6         951.2161 -1099.8905  -733.6120 H6            1 RES     
   23785 H6         950.9365 -1101.6076  -733.9122 H6            1 RES     
   23786 H6         951.1496 -1100.2456  -731.1372 H6            1 RES     
   23787 H6         949.6312 -1100.7888  -731.9487 H6            1 RES     
   23788 H6         950.8314 -1102.0078  -731.3971 H6            1 RES     
   23789 C0         959.6267 -1114.3027  -730.7546 C0            1 RES     
   23790 C0         958.4639 -1115.0341  -730.0400 C0            1 RES     
   23791 C0         958.4961 -1116.5777  -730.0147 C0            1 RES     
   23792 C0         958.0824 -1117.3262  -731.3061 C0            1 RES     
   23793 C0         956.7431 -1116.8216  -731.8825 C0            1 RES     
   23794 C0         956.0739 -1117.7530  -732.9036 C0            1 RES     
   23795 C0         955.3196 -1118.9004  -732.2118 C0            1 RES     
   23796 C0         954.5707 -1119.7786  -733.2251 C0            1 RES     
   23797 C0         953.6796 -1120.7949  -732.4989 C0            1 RES     
   23798 C0         953.0706 -1121.9252  -733.3565 C0            1 RES     
   23799 C0         952.0914 -1121.5570  -734.4914 C0            1 RES     
   23800 C0         952.7744 -1121.0612  -735.7825 C0            1 RES     
   23801 C0         951.8189 -1120.7816  -736.9621 C0            1 RES     
   23802 C0         951.3481 -1121.9932  -737.8050 C0            1 RES     
   23803 C0         950.4207 -1123.0290  -737.1510 C0            1 RES     
   23804 C0         949.1378 -1122.4118  -736.5977 C0            1 RES     
   23805 H6         959.8133 -1114.7359  -731.7611 H6            1 RES     
   23806 H6         960.5256 -1114.5220  -730.1358 H6            1 RES     
   23807 H6         958.5270 -1114.7234  -728.9766 H6            1 RES     
   23808 H6         957.4745 -1114.7313  -730.4077 H6            1 RES     
   23809 H6         959.4822 -1116.9422  -729.6553 H6            1 RES     
   23810 H6         957.7405 -1116.8762  -729.2537 H6            1 RES     
   23811 H6         958.8649 -1117.2489  -732.0917 H6            1 RES     
   23812 H6         957.9908 -1118.3959  -731.0218 H6            1 RES     
   23813 H6         956.0069 -1116.6042  -731.0775 H6            1 RES     
   23814 H6         956.9731 -1115.8855  -732.4083 H6            1 RES     
   23815 H6         956.8143 -1118.1182  -733.6487 H6            1 RES     
   23816 H6         955.3076 -1117.1553  -733.4434 H6            1 RES     
   23817 H6         956.0184 -1119.5295  -731.6216 H6            1 RES     
   23818 H6         954.5743 -1118.4503  -731.5171 H6            1 RES     
   23819 H6         953.9263 -1119.1198  -733.8386 H6            1 RES     
   23820 H6         955.3157 -1120.2988  -733.8644 H6            1 RES     
   23821 H6         954.2980 -1121.3060  -731.7283 H6            1 RES     
   23822 H6         952.8674 -1120.2468  -731.9708 H6            1 RES     
   23823 H6         953.8741 -1122.5766  -733.7630 H6            1 RES     
   23824 H6         952.4901 -1122.5395  -732.6319 H6            1 RES     
   23825 H6         951.3285 -1120.8344  -734.1287 H6            1 RES     
   23826 H6         951.5707 -1122.4942  -734.7243 H6            1 RES     
   23827 H6         953.2561 -1120.0983  -735.5616 H6            1 RES     
   23828 H6         953.5673 -1121.7661  -736.1139 H6            1 RES     
   23829 H6         952.4041 -1120.1658  -737.6814 H6            1 RES     
   23830 H6         950.9657 -1120.1532  -736.6299 H6            1 RES     
   23831 H6         950.8019 -1121.5782  -738.6809 H6            1 RES     
   23832 H6         952.2422 -1122.5254  -738.1973 H6            1 RES     
   23833 H6         950.1405 -1123.7718  -737.9295 H6            1 RES     
   23834 H6         950.9492 -1123.6007  -736.3687 H6            1 RES     
   23835 H6         948.5845 -1121.8872  -737.4053 H6            1 RES     
   23836 H6         948.4902 -1123.2138  -736.1855 H6            1 RES     
   23837 H6         949.3631 -1121.6943  -735.7825 H6            1 RES     
   23838 C0         971.2237 -1111.7630  -735.8626 C0            1 RES     
   23839 C1         970.2932 -1111.2628  -734.7381 C1            1 RES     
   23840 C1         970.9908 -1110.5962  -733.6192 C1            1 RES     
   23841 S2         970.0471 -1111.0089  -732.1438 S2            1 RES     
   23842 C1         968.6352 -1110.9580  -733.2699 C1            1 RES     
   23843 C1         968.9768 -1111.3051  -734.5637 C1            1 RES     
   23844 C1         972.3448 -1111.0708  -733.8631 C1            1 RES     
   23845 C1         972.5274 -1111.6730  -735.0742 C1            1 RES     
   23846 C1         973.8659 -1112.0408  -735.3009 C1            1 RES     
   23847 C1         974.7013 -1111.6497  -734.2271 C1            1 RES     
   23848 S2         973.7691 -1110.8716  -733.0397 S2            1 RES     
   23849 H3         968.2496 -1111.6791  -735.2655 H3            1 RES     
   23850 H3         974.2137 -1112.5436  -736.1947 H3            1 RES     
   23851 N4         976.7539 -1112.8692  -734.8324 N4            1 RES     
   23852 C1         978.0797 -1113.1787  -734.7190 C1            1 RES     
   23853 C1         978.9102 -1112.4691  -733.8431 C1            1 RES     
   23854 C1         978.3534 -1111.4401  -733.0940 C1            1 RES     
   23855 N4         979.0632 -1110.6729  -732.2309 N4            1 RES     
   23856 S2         977.9130 -1109.6375  -731.6542 S2            1 RES     
   23857 N4         976.5354 -1110.1103  -732.4340 N4            1 RES     
   23858 C1         976.9686 -1111.1404  -733.2078 C1            1 RES     
   23859 C1         976.1612 -1111.8808  -734.0979 C1            1 RES     
   23860 H5         978.4941 -1113.9867  -735.3079 H5            1 RES     
   23861 C0         971.2694 -1110.7261  -737.0316 C0            1 RES     
   23862 C0         969.9334 -1110.5643  -737.7636 C0            1 RES     
   23863 C0         969.8704 -1109.4575  -738.8208 C0            1 RES     
   23864 C0         970.0854 -1108.0258  -738.3046 C0            1 RES     
   23865 C0         969.2725 -1107.7033  -737.0340 C0            1 RES     
   23866 C0         969.2761 -1106.2042  -736.7113 C0            1 RES     
   23867 C0         968.2613 -1105.4551  -737.5891 C0            1 RES     
   23868 C0         968.2943 -1103.9485  -737.3295 C0            1 RES     
   23869 C0         967.1304 -1103.2581  -738.0471 C0            1 RES     
   23870 C0         967.1921 -1101.7197  -738.1294 C0            1 RES     
   23871 C0         967.2772 -1100.9210  -736.8134 C0            1 RES     
   23872 C0         968.7027 -1100.8476  -736.2219 C0            1 RES     
   23873 C0         968.8395 -1099.9990  -734.9420 C0            1 RES     
   23874 C0         968.9427 -1098.4641  -735.1114 C0            1 RES     
   23875 C0         967.7192 -1097.7021  -735.6418 C0            1 RES     
   23876 C0         966.4656 -1097.9335  -734.8004 C0            1 RES     
   23877 H6         971.5455 -1109.7421  -736.5967 H6            1 RES     
   23878 H6         972.0613 -1111.0013  -737.7620 H6            1 RES     
   23879 H6         969.7255 -1111.4925  -738.2934 H6            1 RES     
   23880 H6         969.1182 -1110.3793  -737.0399 H6            1 RES     
   23881 H6         970.5905 -1109.6608  -739.6427 H6            1 RES     
   23882 H6         968.8455 -1109.5053  -739.2528 H6            1 RES     
   23883 H6         971.1604 -1107.8539  -738.0795 H6            1 RES     
   23884 H6         969.8088 -1107.3535  -739.1428 H6            1 RES     
   23885 H6         968.2199 -1108.0528  -737.1145 H6            1 RES     
   23886 H6         969.7482 -1108.2465  -736.1894 H6            1 RES     
   23887 H6         970.3062 -1105.7958  -736.8122 H6            1 RES     
   23888 H6         968.9528 -1106.0683  -735.6558 H6            1 RES     
   23889 H6         968.4566 -1105.6252  -738.6682 H6            1 RES     
   23890 H6         967.2491 -1105.8514  -737.3483 H6            1 RES     
   23891 H6         968.1835 -1103.7776  -736.2395 H6            1 RES     
   23892 H6         969.2688 -1103.5550  -737.6929 H6            1 RES     
   23893 H6         967.0924 -1103.6153  -739.1001 H6            1 RES     
   23894 H6         966.1840 -1103.5696  -737.5507 H6            1 RES     
   23895 H6         968.0189 -1101.4006  -738.8000 H6            1 RES     
   23896 H6         966.2398 -1101.4289  -738.6271 H6            1 RES     
   23897 H6         966.5414 -1101.3079  -736.0755 H6            1 RES     
   23898 H6         966.9708 -1099.9033  -737.0836 H6            1 RES     
   23899 H6         969.0079 -1101.8617  -735.9287 H6            1 RES     
   23900 H6         969.4329 -1100.4888  -736.9794 H6            1 RES     
   23901 H6         969.8168 -1100.2871  -734.4933 H6            1 RES     
   23902 H6         968.0582 -1100.2829  -734.2059 H6            1 RES     
   23903 H6         969.1738 -1098.0488  -734.1057 H6            1 RES     
   23904 H6         969.8084 -1098.2333  -735.7702 H6            1 RES     
   23905 H6         967.9594 -1096.6171  -735.6189 H6            1 RES     
   23906 H6         967.5292 -1097.9433  -736.7019 H6            1 RES     
   23907 H6         966.6501 -1097.6351  -733.7467 H6            1 RES     
   23908 H6         965.6319 -1097.3217  -735.2041 H6            1 RES     
   23909 H6         966.1588 -1098.9988  -734.8298 H6            1 RES     
   23910 C0         970.9913 -1113.2578  -736.3344 C0            1 RES     
   23911 C0         969.5114 -1113.6896  -736.4795 C0            1 RES     
   23912 C0         969.2264 -1115.0721  -737.1055 C0            1 RES     
   23913 C0         969.3438 -1115.2020  -738.6444 C0            1 RES     
   23914 C0         968.5705 -1114.0977  -739.3949 C0            1 RES     
   23915 C0         968.3042 -1114.3754  -740.8815 C0            1 RES     
   23916 C0         967.1041 -1115.3171  -741.0738 C0            1 RES     
   23917 C0         966.7762 -1115.5210  -742.5603 C0            1 RES     
   23918 C0         965.4680 -1116.3071  -742.7183 C0            1 RES     
   23919 C0         965.1364 -1116.8306  -744.1325 C0            1 RES     
   23920 C0         964.9120 -1115.8137  -745.2719 C0            1 RES     
   23921 C0         966.2107 -1115.2452  -745.8794 C0            1 RES     
   23922 C0         966.0108 -1114.3021  -747.0850 C0            1 RES     
   23923 C0         965.7747 -1114.9521  -748.4712 C0            1 RES     
   23924 C0         964.4662 -1115.7209  -748.7105 C0            1 RES     
   23925 C0         963.2230 -1114.8704  -748.4574 C0            1 RES     
   23926 H6         971.5480 -1113.4122  -737.2840 H6            1 RES     
   23927 H6         971.4226 -1113.9619  -735.5878 H6            1 RES     
   23928 H6         969.1175 -1113.7513  -735.4439 H6            1 RES     
   23929 H6         968.8987 -1112.9527  -737.0157 H6            1 RES     
   23930 H6         969.8281 -1115.8599  -736.6037 H6            1 RES     
   23931 H6         968.1573 -1115.2840  -736.8789 H6            1 RES     
   23932 H6         970.4046 -1115.1881  -738.9759 H6            1 RES     
   23933 H6         968.9212 -1116.1970  -738.8991 H6            1 RES     
   23934 H6         967.5974 -1113.8739  -738.9046 H6            1 RES     
   23935 H6         969.2011 -1113.2001  -739.3466 H6            1 RES     
   23936 H6         969.2235 -1114.7488  -741.3837 H6            1 RES     
   23937 H6         968.0223 -1113.4088  -741.3528 H6            1 RES     
   23938 H6         967.2980 -1116.3016  -740.5988 H6            1 RES     
   23939 H6         966.2213 -1114.8520  -740.5790 H6            1 RES     
   23940 H6         966.6458 -1114.5233  -743.0221 H6            1 RES     
   23941 H6         967.6187 -1116.0642  -743.0395 H6            1 RES     
   23942 H6         965.5297 -1117.2111  -742.0730 H6            1 RES     
   23943 H6         964.6265 -1115.6820  -742.3438 H6            1 RES     
   23944 H6         965.8921 -1117.5795  -744.4535 H6            1 RES     
   23945 H6         964.1732 -1117.3745  -744.0068 H6            1 RES     
   23946 H6         964.2258 -1115.0039  -744.9418 H6            1 RES     
   23947 H6         964.3949 -1116.3829  -746.0546 H6            1 RES     
   23948 H6         966.7051 -1114.6356  -745.1100 H6            1 RES     
   23949 H6         966.9111 -1116.0596  -746.1650 H6            1 RES     
   23950 H6         966.9757 -1113.7600  -747.2039 H6            1 RES     
   23951 H6         965.2435 -1113.5334  -746.8533 H6            1 RES     
   23952 H6         965.8065 -1114.1283  -749.2183 H6            1 RES     
   23953 H6         966.6244 -1115.6331  -748.6967 H6            1 RES     
   23954 H6         964.4538 -1116.0456  -749.7739 H6            1 RES     
   23955 H6         964.4334 -1116.6491  -748.1142 H6            1 RES     
   23956 H6         963.2373 -1113.9673  -749.1039 H6            1 RES     
   23957 H6         962.3151 -1115.4637  -748.6950 H6            1 RES     
   23958 H6         963.1658 -1114.5589  -747.3946 H6            1 RES     
   23959 C0         983.8602 -1113.7446  -735.2454 C0            1 RES     
   23960 C1         982.6230 -1113.2942  -734.4410 C1            1 RES     
   23961 C1         982.8153 -1113.2895  -732.9761 C1            1 RES     
   23962 S2         981.2213 -1113.7438  -732.2756 S2            1 RES     
   23963 C1         980.5604 -1112.8519  -733.7010 C1            1 RES     
   23964 C1         981.4039 -1112.9023  -734.7951 C1            1 RES     
   23965 C1         983.9992 -1114.1312  -732.8862 C1            1 RES     
   23966 C1         984.6173 -1114.3731  -734.0787 C1            1 RES     
   23967 C1         985.8005 -1115.1199  -733.9348 C1            1 RES     
   23968 C1         986.0788 -1115.3956  -732.5745 C1            1 RES     
   23969 S2         984.8641 -1114.7176  -731.6001 S2            1 RES     
   23970 H3         981.0438 -1112.7605  -735.8008 H3            1 RES     
   23971 H3         986.4279 -1115.4278  -734.7620 H3            1 RES     
   23972 N4         987.8888 -1117.0438  -732.8467 N4            1 RES     
   23973 C1         988.9098 -1117.8346  -732.4010 C1            1 RES     
   23974 C1         989.3405 -1117.7689  -731.0703 C1            1 RES     
   23975 C1         988.7058 -1116.8773  -730.2146 C1            1 RES     
   23976 N4         989.0504 -1116.7130  -728.9139 N4            1 RES     
   23977 S2         987.9911 -1115.5484  -728.4148 S2            1 RES     
   23978 N4         987.0920 -1115.2334  -729.7644 N4            1 RES     
   23979 C1         987.6325 -1116.0736  -730.6862 C1            1 RES     
   23980 C1         987.2224 -1116.1707  -732.0334 C1            1 RES     
   23981 H5         989.3890 -1118.5261  -733.0818 H5            1 RES     
   23982 C0         984.6601 -1112.5013  -735.7536 C0            1 RES     
   23983 C0         983.8973 -1111.6552  -736.7778 C0            1 RES     
   23984 C0         984.5642 -1110.3434  -737.2034 C0            1 RES     
   23985 C0         984.7802 -1109.3094  -736.0869 C0            1 RES     
   23986 C0         983.5393 -1109.1019  -735.1945 C0            1 RES     
   23987 C0         983.6799 -1107.8742  -734.2865 C0            1 RES     
   23988 C0         983.3763 -1106.5837  -735.0637 C0            1 RES     
   23989 C0         983.5737 -1105.3415  -734.1939 C0            1 RES     
   23990 C0         983.0543 -1104.0955  -734.9179 C0            1 RES     
   23991 C0         983.4459 -1102.7351  -734.3072 C0            1 RES     
   23992 C0         983.0451 -1102.4482  -732.8463 C0            1 RES     
   23993 C0         983.9975 -1103.0779  -731.8052 C0            1 RES     
   23994 C0         983.6679 -1102.7552  -730.3341 C0            1 RES     
   23995 C0         984.1361 -1101.3873  -729.7817 C0            1 RES     
   23996 C0         983.4901 -1100.1116  -730.3421 C0            1 RES     
   23997 C0         981.9691 -1100.1060  -730.2020 C0            1 RES     
   23998 H6         984.8801 -1111.8611  -734.8731 H6            1 RES     
   23999 H6         985.6340 -1112.8185  -736.1864 H6            1 RES     
   24000 H6         983.7918 -1112.2431  -737.6881 H6            1 RES     
   24001 H6         982.8891 -1111.4073  -736.3976 H6            1 RES     
   24002 H6         985.5343 -1110.5439  -737.7075 H6            1 RES     
   24003 H6         983.8837 -1109.8843  -737.9553 H6            1 RES     
   24004 H6         985.6267 -1109.6163  -735.4350 H6            1 RES     
   24005 H6         985.0749 -1108.3679  -736.5945 H6            1 RES     
   24006 H6         982.6083 -1109.0026  -735.7944 H6            1 RES     
   24007 H6         983.4372 -1110.0039  -734.5538 H6            1 RES     
   24008 H6         984.6899 -1107.8598  -733.8199 H6            1 RES     
   24009 H6         982.9249 -1107.9469  -733.4731 H6            1 RES     
   24010 H6         984.0264 -1106.4875  -735.9579 H6            1 RES     
   24011 H6         982.3171 -1106.6351  -735.4029 H6            1 RES     
   24012 H6         982.9909 -1105.4710  -733.2595 H6            1 RES     
   24013 H6         984.6586 -1105.2427  -733.9711 H6            1 RES     
   24014 H6         983.4557 -1104.0872  -735.9556 H6            1 RES     
   24015 H6         981.9458 -1104.1714  -734.9855 H6            1 RES     
   24016 H6         984.5368 -1102.5578  -734.4241 H6            1 RES     
   24017 H6         982.9249 -1101.9841  -734.9424 H6            1 RES     
   24018 H6         981.9869 -1102.7386  -732.6693 H6            1 RES     
   24019 H6         983.1099 -1101.3580  -732.7475 H6            1 RES     
   24020 H6         983.9213 -1104.1713  -731.8839 H6            1 RES     
   24021 H6         985.0549 -1102.8046  -732.0125 H6            1 RES     
   24022 H6         984.2344 -1103.4985  -729.7291 H6            1 RES     
   24023 H6         982.5916 -1102.9374  -730.1313 H6            1 RES     
   24024 H6         983.9341 -1101.4010  -728.6880 H6            1 RES     
   24025 H6         985.2374 -1101.3057  -729.9124 H6            1 RES     
   24026 H6         983.8960 -1099.2477  -729.7725 H6            1 RES     
   24027 H6         983.7872 -1099.9431  -731.3915 H6            1 RES     
   24028 H6         981.6815 -1100.2200  -729.1354 H6            1 RES     
   24029 H6         981.5672 -1099.1424  -730.5793 H6            1 RES     
   24030 H6         981.5131 -1100.9262  -730.7928 H6            1 RES     
   24031 C0         983.5957 -1114.8411  -736.3584 C0            1 RES     
   24032 C0         982.3135 -1114.6395  -737.2028 C0            1 RES     
   24033 C0         982.0996 -1115.5721  -738.4147 C0            1 RES     
   24034 C0         982.9106 -1115.2767  -739.7007 C0            1 RES     
   24035 C0         982.8221 -1113.7981  -740.1328 C0            1 RES     
   24036 C0         983.2507 -1113.5085  -741.5785 C0            1 RES     
   24037 C0         982.1315 -1113.8454  -742.5775 C0            1 RES     
   24038 C0         982.5217 -1113.4682  -744.0143 C0            1 RES     
   24039 C0         981.3237 -1113.6384  -744.9578 C0            1 RES     
   24040 C0         981.6140 -1113.5633  -746.4724 C0            1 RES     
   24041 C0         982.1645 -1112.2479  -747.0633 C0            1 RES     
   24042 C0         983.6779 -1112.0410  -746.8495 C0            1 RES     
   24043 C0         984.2666 -1110.7801  -747.5177 C0            1 RES     
   24044 C0         984.6006 -1110.8600  -749.0283 C0            1 RES     
   24045 C0         983.4446 -1110.9908  -750.0319 C0            1 RES     
   24046 C0         982.4244 -1109.8603  -749.9133 C0            1 RES     
   24047 H6         984.4965 -1114.9011  -737.0068 H6            1 RES     
   24048 H6         983.4712 -1115.8402  -735.8836 H6            1 RES     
   24049 H6         981.4691 -1114.8550  -736.5159 H6            1 RES     
   24050 H6         982.1886 -1113.6071  -737.5556 H6            1 RES     
   24051 H6         982.2218 -1116.6354  -738.1160 H6            1 RES     
   24052 H6         981.0344 -1115.4357  -738.7077 H6            1 RES     
   24053 H6         983.9804 -1115.5541  -739.5819 H6            1 RES     
   24054 H6         982.4768 -1115.9262  -740.4902 H6            1 RES     
   24055 H6         981.7979 -1113.3895  -739.9867 H6            1 RES     
   24056 H6         983.5139 -1113.2498  -739.4797 H6            1 RES     
   24057 H6         984.2055 -1114.0261  -741.8180 H6            1 RES     
   24058 H6         983.4228 -1112.4131  -741.6590 H6            1 RES     
   24059 H6         981.8789 -1114.9256  -742.5338 H6            1 RES     
   24060 H6         981.2294 -1113.2581  -742.2917 H6            1 RES     
   24061 H6         982.8250 -1112.4034  -744.0183 H6            1 RES     
   24062 H6         983.3666 -1114.1145  -744.3351 H6            1 RES     
   24063 H6         980.8921 -1114.6493  -744.7870 H6            1 RES     
   24064 H6         980.5457 -1112.8894  -744.6883 H6            1 RES     
   24065 H6         982.2689 -1114.4062  -746.7819 H6            1 RES     
   24066 H6         980.6231 -1113.7291  -746.9521 H6            1 RES     
   24067 H6         981.5766 -1111.3793  -746.6950 H6            1 RES     
   24068 H6         981.9850 -1112.3314  -748.1425 H6            1 RES     
   24069 H6         983.8521 -1111.9096  -745.7723 H6            1 RES     
   24070 H6         984.2557 -1112.9319  -747.1777 H6            1 RES     
   24071 H6         985.2554 -1110.6187  -747.0326 H6            1 RES     
   24072 H6         983.6483 -1109.8893  -747.2780 H6            1 RES     
   24073 H6         985.1454 -1109.9240  -749.2834 H6            1 RES     
   24074 H6         985.3036 -1111.7052  -749.1953 H6            1 RES     
   24075 H6         983.8792 -1110.9599  -751.0549 H6            1 RES     
   24076 H6         982.9508 -1111.9742  -749.9464 H6            1 RES     
   24077 H6         982.9216 -1108.8776  -750.0576 H6            1 RES     
   24078 H6         981.6449 -1109.9829  -750.6943 H6            1 RES     
   24079 H6         981.9280 -1109.8772  -748.9217 H6            1 RES     
   24080 C0         994.0021 -1120.2897  -730.9684 C0            1 RES     
   24081 C1         992.6456 -1119.6770  -730.5621 C1            1 RES     
   24082 C1         992.1109 -1120.1743  -729.2777 C1            1 RES     
   24083 S2         990.3224 -1120.1999  -729.4737 S2            1 RES     
   24084 C1         990.6114 -1118.7512  -730.5138 C1            1 RES     
   24085 C1         991.8471 -1118.7815  -731.1328 C1            1 RES     
   24086 C1         992.9180 -1121.3763  -729.1305 C1            1 RES     
   24087 C1         993.9705 -1121.4646  -729.9949 C1            1 RES     
   24088 C1         994.7697 -1122.5985  -729.7626 C1            1 RES     
   24089 C1         994.3040 -1123.3440  -728.6531 C1            1 RES     
   24090 S2         992.9298 -1122.5887  -728.0007 S2            1 RES     
   24091 H3         992.0471 -1118.2288  -732.0360 H3            1 RES     
   24092 H3         995.6426 -1122.8560  -730.3496 H3            1 RES     
   24093 N4         995.6635 -1125.3804  -728.9210 N4            1 RES     
   24094 C1         996.1710 -1126.5828  -728.5170 C1            1 RES     
   24095 C1         995.9164 -1127.0738  -727.2307 C1            1 RES     
   24096 C1         995.1373 -1126.3065  -726.3737 C1            1 RES     
   24097 N4         994.8426 -1126.6701  -725.1016 N4            1 RES     
   24098 S2         993.9234 -1125.4018  -724.5782 S2            1 RES     
   24099 N4         993.8599 -1124.3980  -725.8888 N4            1 RES     
   24100 C1         994.5999 -1125.0660  -726.8128 C1            1 RES     
   24101 C1         994.8739 -1124.6055  -728.1187 C1            1 RES     
   24102 H5         996.7723 -1127.1681  -729.2006 H5            1 RES     
   24103 C0         995.1722 -1119.3340  -730.5666 C0            1 RES     
   24104 C0         995.1733 -1118.0067  -731.3315 C0            1 RES     
   24105 C0         996.2032 -1116.9662  -730.8805 C0            1 RES     
   24106 C0         996.0558 -1116.4606  -729.4366 C0            1 RES     
   24107 C0         994.6067 -1116.0870  -729.0625 C0            1 RES     
   24108 C0         994.5320 -1115.3214  -727.7359 C0            1 RES     
   24109 C0         994.8947 -1113.8419  -727.9392 C0            1 RES     
   24110 C0         994.8897 -1113.0729  -726.6175 C0            1 RES     
   24111 C0         995.0336 -1111.5697  -726.8745 C0            1 RES     
   24112 C0         995.3418 -1110.6910  -725.6457 C0            1 RES     
   24113 C0         994.3559 -1110.7214  -724.4607 C0            1 RES     
   24114 C0         994.5513 -1111.9318  -723.5203 C0            1 RES     
   24115 C0         993.6286 -1111.9595  -722.2856 C0            1 RES     
   24116 C0         994.0317 -1111.0849  -721.0739 C0            1 RES     
   24117 C0         993.9947 -1109.5573  -721.2290 C0            1 RES     
   24118 C0         992.6261 -1109.0384  -721.6658 C0            1 RES     
   24119 H6         995.0644 -1119.1081  -729.4845 H6            1 RES     
   24120 H6         996.1515 -1119.8422  -730.7046 H6            1 RES     
   24121 H6         995.4037 -1118.2194  -732.3741 H6            1 RES     
   24122 H6         994.1763 -1117.5316  -731.2790 H6            1 RES     
   24123 H6         997.2361 -1117.3491  -731.0292 H6            1 RES     
   24124 H6         996.0693 -1116.0910  -731.5552 H6            1 RES     
   24125 H6         996.4094 -1117.2326  -728.7192 H6            1 RES     
   24126 H6         996.7342 -1115.5872  -729.3474 H6            1 RES     
   24127 H6         994.1154 -1115.4828  -729.8563 H6            1 RES     
   24128 H6         994.0374 -1117.0351  -728.9544 H6            1 RES     
   24129 H6         995.1767 -1115.8148  -726.9751 H6            1 RES     
   24130 H6         993.4823 -1115.3494  -727.3695 H6            1 RES     
   24131 H6         995.8977 -1113.7311  -728.4009 H6            1 RES     
   24132 H6         994.1397 -1113.4008  -728.6284 H6            1 RES     
   24133 H6         993.9187 -1113.2497  -726.1122 H6            1 RES     
   24134 H6         995.7316 -1113.4474  -725.9950 H6            1 RES     
   24135 H6         995.8751 -1111.4034  -727.5831 H6            1 RES     
   24136 H6         994.1017 -1111.2121  -727.3673 H6            1 RES     
   24137 H6         996.3665 -1110.8982  -725.2686 H6            1 RES     
   24138 H6         995.3454 -1109.6505  -726.0410 H6            1 RES     
   24139 H6         993.3084 -1110.6436  -724.8243 H6            1 RES     
   24140 H6         994.5764 -1109.8112  -723.8901 H6            1 RES     
   24141 H6         994.3108 -1112.8464  -724.0798 H6            1 RES     
   24142 H6         995.6093 -1112.0153  -723.1894 H6            1 RES     
   24143 H6         993.6797 -1113.0009  -721.8953 H6            1 RES     
   24144 H6         992.5742 -1111.7872  -722.5882 H6            1 RES     
   24145 H6         993.3331 -1111.3452  -720.2484 H6            1 RES     
   24146 H6         995.0533 -1111.3763  -720.7453 H6            1 RES     
   24147 H6         994.2381 -1109.1103  -720.2409 H6            1 RES     
   24148 H6         994.7837 -1109.2080  -721.9171 H6            1 RES     
   24149 H6         991.8476 -1109.3481  -720.9368 H6            1 RES     
   24150 H6         992.6498 -1107.9295  -721.7136 H6            1 RES     
   24151 H6         992.3583 -1109.4224  -722.6712 H6            1 RES     
   24152 C0         994.0943 -1120.8338  -732.4538 C0            1 RES     
   24153 C0         993.4391 -1119.9391  -733.5345 C0            1 RES     
   24154 C0         993.6538 -1120.3280  -735.0133 C0            1 RES     
   24155 C0         995.0207 -1119.9845  -735.6555 C0            1 RES     
   24156 C0         995.4393 -1118.5191  -735.4144 C0            1 RES     
   24157 C0         996.5539 -1117.9941  -736.3308 C0            1 RES     
   24158 C0         996.0074 -1117.5890  -737.7097 C0            1 RES     
   24159 C0         997.1019 -1116.9753  -738.5952 C0            1 RES     
   24160 C0         996.4939 -1116.4105  -739.8858 C0            1 RES     
   24161 C0         997.4812 -1116.0042  -741.0012 C0            1 RES     
   24162 C0         998.4912 -1114.8694  -740.7280 C0            1 RES     
   24163 C0         999.7255 -1115.3022  -739.9105 C0            1 RES     
   24164 C0        1000.7945 -1114.2068  -739.7105 C0            1 RES     
   24165 C0        1001.7873 -1113.9545  -740.8727 C0            1 RES     
   24166 C0        1001.2516 -1113.3526  -742.1809 C0            1 RES     
   24167 C0        1000.5412 -1112.0166  -741.9727 C0            1 RES     
   24168 H6         995.1641 -1121.0248  -732.6873 H6            1 RES     
   24169 H6         993.5662 -1121.8106  -732.5326 H6            1 RES     
   24170 H6         992.3455 -1120.0234  -733.3662 H6            1 RES     
   24171 H6         993.7018 -1118.8778  -733.4316 H6            1 RES     
   24172 H6         993.4086 -1121.3995  -735.1752 H6            1 RES     
   24173 H6         992.9081 -1119.7323  -735.5863 H6            1 RES     
   24174 H6         995.8262 -1120.6550  -735.2851 H6            1 RES     
   24175 H6         994.9001 -1120.1673  -736.7443 H6            1 RES     
   24176 H6         994.5717 -1117.8273  -735.4930 H6            1 RES     
   24177 H6         995.8262 -1118.4796  -734.3876 H6            1 RES     
   24178 H6         997.3854 -1118.7293  -736.4014 H6            1 RES     
   24179 H6         996.9530 -1117.0658  -735.8672 H6            1 RES     
   24180 H6         995.5599 -1118.4637  -738.2265 H6            1 RES     
   24181 H6         995.2124 -1116.8250  -737.5518 H6            1 RES     
   24182 H6         997.5708 -1116.1445  -738.0335 H6            1 RES     
   24183 H6         997.8531 -1117.7601  -738.8281 H6            1 RES     
   24184 H6         995.8458 -1117.1961  -740.3334 H6            1 RES     
   24185 H6         995.8445 -1115.5443  -739.6272 H6            1 RES     
   24186 H6         998.0260 -1116.8966  -741.3779 H6            1 RES     
   24187 H6         996.8296 -1115.6477  -741.8305 H6            1 RES     
   24188 H6         997.9807 -1113.9961  -740.2672 H6            1 RES     
   24189 H6         998.8372 -1114.5599  -741.7222 H6            1 RES     
   24190 H6         999.3852 -1115.5669  -738.8994 H6            1 RES     
   24191 H6        1000.2039 -1116.2033  -740.3513 H6            1 RES     
   24192 H6        1001.4409 -1114.5680  -738.8794 H6            1 RES     
   24193 H6        1000.3238 -1113.2649  -739.3577 H6            1 RES     
   24194 H6        1002.5580 -1113.2516  -740.4857 H6            1 RES     
   24195 H6        1002.3047 -1114.9085  -741.1151 H6            1 RES     
   24196 H6        1002.1189 -1113.1828  -742.8557 H6            1 RES     
   24197 H6        1000.5964 -1114.0660  -742.7100 H6            1 RES     
   24198 H6        1001.2273 -1111.2877  -741.4914 H6            1 RES     
   24199 H6        1000.2231 -1111.6104  -742.9558 H6            1 RES     
   24200 H6         999.6386 -1112.1422  -741.3405 H6            1 RES     
   24201 C0         999.3696 -1131.0319  -726.5207 C0            1 RES     
   24202 C1         998.1328 -1130.1153  -726.4181 C1            1 RES     
   24203 C1         996.9640 -1130.7374  -725.7626 C1            1 RES     
   24204 S2         995.5209 -1130.0493  -726.5884 S2            1 RES     
   24205 C1         996.5477 -1128.5692  -726.7255 C1            1 RES     
   24206 C1         997.8960 -1128.8648  -726.7997 C1            1 RES     
   24207 C1         997.3509 -1132.1370  -725.8591 C1            1 RES     
   24208 C1         998.6483 -1132.3447  -726.2280 C1            1 RES     
   24209 C1         999.0011 -1133.7063  -726.2279 C1            1 RES     
   24210 C1         997.9267 -1134.5214  -725.7978 C1            1 RES     
   24211 S2         996.5848 -1133.5447  -725.4372 S2            1 RES     
   24212 H3         998.6068 -1128.1838  -727.2383 H3            1 RES     
   24213 H3         999.9792 -1134.0796  -726.5049 H3            1 RES     
   24214 N4         998.8227 -1136.7374  -726.3923 N4            1 RES     
   24215 C1         998.8302 -1138.1036  -726.3858 C1            1 RES     
   24216 C1         997.9016 -1138.8229  -725.6237 C1            1 RES     
   24217 C1         996.9740 -1138.1132  -724.8716 C1            1 RES     
   24218 N4         996.0425 -1138.7013  -724.0816 N4            1 RES     
   24219 S2         995.2519 -1137.3995  -723.4428 S2            1 RES     
   24220 N4         996.0195 -1136.1040  -724.1222 N4            1 RES     
   24221 C1         996.9651 -1136.6921  -724.9017 C1            1 RES     
   24222 C1         997.9137 -1136.0009  -725.6859 C1            1 RES     
   24223 H5         999.5581 -1138.6388  -726.9817 H5            1 RES     
   24224 C0        1000.3657 -1130.7334  -725.3533 C0            1 RES     
   24225 C0        1000.9906 -1129.3362  -725.4196 C0            1 RES     
   24226 C0        1001.8597 -1128.9261  -724.2266 C0            1 RES     
   24227 C0        1001.1415 -1128.8508  -722.8698 C0            1 RES     
   24228 C0         999.7942 -1128.1020  -722.9296 C0            1 RES     
   24229 C0         999.2451 -1127.7890  -721.5325 C0            1 RES     
   24230 C0         999.9409 -1126.5550  -720.9371 C0            1 RES     
   24231 C0         999.4544 -1126.2631  -719.5171 C0            1 RES     
   24232 C0         999.9931 -1124.9123  -719.0359 C0            1 RES     
   24233 C0         999.8406 -1124.6105  -717.5316 C0            1 RES     
   24234 C0         998.4238 -1124.6263  -716.9238 C0            1 RES     
   24235 C0         997.9060 -1126.0435  -716.5907 C0            1 RES     
   24236 C0         996.5199 -1126.0946  -715.9176 C0            1 RES     
   24237 C0         996.4562 -1125.8260  -714.3947 C0            1 RES     
   24238 C0         996.7959 -1124.4177  -713.8847 C0            1 RES     
   24239 C0         995.9336 -1123.3311  -714.5242 C0            1 RES     
   24240 H6         999.7999 -1130.8130  -724.4009 H6            1 RES     
   24241 H6        1001.1714 -1131.4991  -725.3271 H6            1 RES     
   24242 H6        1001.6451 -1129.3013  -726.2890 H6            1 RES     
   24243 H6        1000.2041 -1128.5681  -725.5373 H6            1 RES     
   24244 H6        1002.7409 -1129.5975  -724.1360 H6            1 RES     
   24245 H6        1002.2379 -1127.9056  -724.4604 H6            1 RES     
   24246 H6        1000.9510 -1129.8729  -722.4765 H6            1 RES     
   24247 H6        1001.8499 -1128.3533  -722.1757 H6            1 RES     
   24248 H6         999.8706 -1127.1553  -723.5080 H6            1 RES     
   24249 H6         999.0704 -1128.7633  -723.4525 H6            1 RES     
   24250 H6         999.3374 -1128.6841  -720.8782 H6            1 RES     
   24251 H6         998.1654 -1127.5384  -721.6243 H6            1 RES     
   24252 H6        1001.0423 -1126.6872  -720.9058 H6            1 RES     
   24253 H6         999.7096 -1125.6867  -721.5947 H6            1 RES     
   24254 H6         998.3467 -1126.2134  -719.5287 H6            1 RES     
   24255 H6         999.8050 -1127.0844  -718.8545 H6            1 RES     
   24256 H6        1001.0849 -1124.8640  -719.2441 H6            1 RES     
   24257 H6         999.5002 -1124.1112  -719.6311 H6            1 RES     
   24258 H6        1000.4977 -1125.2785  -716.9340 H6            1 RES     
   24259 H6        1000.2353 -1123.5764  -717.4134 H6            1 RES     
   24260 H6         997.7157 -1124.0681  -717.5737 H6            1 RES     
   24261 H6         998.5170 -1124.0709  -715.9828 H6            1 RES     
   24262 H6         997.7894 -1126.5988  -717.5317 H6            1 RES     
   24263 H6         998.6376 -1126.6009  -715.9664 H6            1 RES     
   24264 H6         996.1745 -1127.1479  -716.0203 H6            1 RES     
   24265 H6         995.7952 -1125.4684  -716.4793 H6            1 RES     
   24266 H6         995.4125 -1126.0439  -714.0776 H6            1 RES     
   24267 H6         997.1173 -1126.5531  -713.8743 H6            1 RES     
   24268 H6         996.6191 -1124.4026  -712.7875 H6            1 RES     
   24269 H6         997.8687 -1124.1946  -714.0171 H6            1 RES     
   24270 H6         994.8581 -1123.5351  -714.3372 H6            1 RES     
   24271 H6         996.1926 -1122.3464  -714.0820 H6            1 RES     
   24272 H6         996.1102 -1123.2766  -715.6177 H6            1 RES     
   24273 C0        1000.0528 -1131.1089  -727.9484 C0            1 RES     
   24274 C0        1000.1824 -1129.7613  -728.7000 C0            1 RES     
   24275 C0        1000.9976 -1129.7478  -730.0113 C0            1 RES     
   24276 C0        1002.5422 -1129.7544  -729.8972 C0            1 RES     
   24277 C0        1003.0707 -1128.6839  -728.9198 C0            1 RES     
   24278 C0        1004.5657 -1128.3574  -729.0473 C0            1 RES     
   24279 C0        1004.8357 -1127.3941  -730.2149 C0            1 RES     
   24280 C0        1006.3159 -1126.9910  -730.2864 C0            1 RES     
   24281 C0        1006.5221 -1125.8902  -731.3352 C0            1 RES     
   24282 C0        1007.9801 -1125.5634  -731.7246 C0            1 RES     
   24283 C0        1008.9354 -1125.0103  -730.6457 C0            1 RES     
   24284 C0        1009.5174 -1126.0838  -729.7034 C0            1 RES     
   24285 C0        1010.5507 -1125.5655  -728.6804 C0            1 RES     
   24286 C0        1012.0057 -1125.3629  -729.1722 C0            1 RES     
   24287 C0        1012.2894 -1124.2506  -730.1934 C0            1 RES     
   24288 C0        1011.8415 -1122.8726  -729.7103 C0            1 RES     
   24289 H6        1001.0435 -1131.5994  -727.8326 H6            1 RES     
   24290 H6         999.4480 -1131.7555  -728.6231 H6            1 RES     
   24291 H6         999.1490 -1129.4861  -728.9958 H6            1 RES     
   24292 H6        1000.5648 -1128.9502  -728.0661 H6            1 RES     
   24293 H6        1000.6565 -1130.5570  -730.6920 H6            1 RES     
   24294 H6        1000.7489 -1128.7808  -730.5034 H6            1 RES     
   24295 H6        1002.9245 -1130.7496  -729.5829 H6            1 RES     
   24296 H6        1002.9239 -1129.5513  -730.9202 H6            1 RES     
   24297 H6        1002.4999 -1127.7331  -729.0062 H6            1 RES     
   24298 H6        1002.9189 -1129.0926  -727.9120 H6            1 RES     
   24299 H6        1005.1684 -1129.2895  -729.1159 H6            1 RES     
   24300 H6        1004.8665 -1127.8197  -728.1220 H6            1 RES     
   24301 H6        1004.5292 -1127.8511  -731.1791 H6            1 RES     
   24302 H6        1004.2281 -1126.4756  -730.0484 H6            1 RES     
   24303 H6        1006.6107 -1126.5937  -729.2959 H6            1 RES     
   24304 H6        1006.9179 -1127.8898  -730.5398 H6            1 RES     
   24305 H6        1006.0281 -1126.2156  -732.2773 H6            1 RES     
   24306 H6        1006.0109 -1124.9642  -730.9886 H6            1 RES     
   24307 H6        1008.4531 -1126.4396  -732.2183 H6            1 RES     
   24308 H6        1007.8878 -1124.7665  -732.4965 H6            1 RES     
   24309 H6        1008.4479 -1124.1883  -730.0780 H6            1 RES     
   24310 H6        1009.7673 -1124.5706  -731.2101 H6            1 RES     
   24311 H6        1008.6911 -1126.4910  -729.1039 H6            1 RES     
   24312 H6        1009.9625 -1126.9246  -730.2781 H6            1 RES     
   24313 H6        1010.6366 -1126.3652  -727.9109 H6            1 RES     
   24314 H6        1010.1621 -1124.6656  -728.1584 H6            1 RES     
   24315 H6        1012.6176 -1125.1375  -728.2707 H6            1 RES     
   24316 H6        1012.3790 -1126.3230  -729.5909 H6            1 RES     
   24317 H6        1013.3879 -1124.2187  -730.3628 H6            1 RES     
   24318 H6        1011.8424 -1124.4858  -731.1748 H6            1 RES     
   24319 H6        1012.3409 -1122.6210  -728.7506 H6            1 RES     
   24320 H6        1012.1181 -1122.1083  -730.4666 H6            1 RES     
   24321 H6        1010.7418 -1122.8402  -729.5702 H6            1 RES     
   24322 C0         999.7492 -1143.7885  -725.4649 C0            1 RES     
   24323 C1         998.8193 -1142.5576  -725.4402 C1            1 RES     
   24324 C1         997.3838 -1142.8733  -725.5898 C1            1 RES     
   24325 S2         996.6766 -1141.4957  -726.5062 S2            1 RES     
   24326 C1         997.9097 -1140.5229  -725.6134 C1            1 RES     
   24327 C1         999.0424 -1141.2544  -725.3089 C1            1 RES     
   24328 C1         997.4888 -1144.2223  -726.1256 C1            1 RES     
   24329 C1         998.7360 -1144.7708  -726.0460 C1            1 RES     
   24330 C1         998.7731 -1146.1022  -726.4982 C1            1 RES     
   24331 C1         997.4886 -1146.5565  -726.8822 C1            1 RES     
   24332 S2         996.3571 -1145.3101  -726.6568 S2            1 RES     
   24333 H3         999.9934 -1140.7832  -725.1218 H3            1 RES     
   24334 H3         999.6705 -1146.7074  -726.5297 H3            1 RES     
   24335 N4         998.1089 -1148.6658  -727.9926 N4            1 RES     
   24336 C1         997.8462 -1149.8770  -728.5674 C1            1 RES     
   24337 C1         996.5466 -1150.3977  -728.5827 C1            1 RES     
   24338 C1         995.5307 -1149.6536  -727.9960 C1            1 RES     
   24339 N4         994.2408 -1150.0655  -727.9331 N4            1 RES     
   24340 S2         993.5116 -1148.8153  -727.1376 S2            1 RES     
   24341 N4         994.7460 -1147.7513  -726.8669 N4            1 RES     
   24342 C1         995.8141 -1148.3864  -727.4178 C1            1 RES     
   24343 C1         997.1360 -1147.8914  -727.4256 C1            1 RES     
   24344 H5         998.6504 -1150.4400  -729.0233 H5            1 RES     
   24345 C0        1000.1023 -1144.2321  -724.0080 C0            1 RES     
   24346 C0        1000.9412 -1143.2068  -723.2386 C0            1 RES     
   24347 C0        1001.1950 -1143.5130  -721.7593 C0            1 RES     
   24348 C0         999.9459 -1143.5838  -720.8665 C0            1 RES     
   24349 C0         998.9664 -1142.4130  -721.0882 C0            1 RES     
   24350 C0         997.8890 -1142.3474  -719.9989 C0            1 RES     
   24351 C0         998.4405 -1141.6868  -718.7257 C0            1 RES     
   24352 C0         997.4018 -1141.6695  -717.6036 C0            1 RES     
   24353 C0         997.8960 -1140.8148  -716.4325 C0            1 RES     
   24354 C0         997.1050 -1140.9354  -715.1146 C0            1 RES     
   24355 C0         995.5978 -1140.6110  -715.1354 C0            1 RES     
   24356 C0         994.7193 -1141.7717  -715.6535 C0            1 RES     
   24357 C0         993.2004 -1141.5091  -715.6241 C0            1 RES     
   24358 C0         992.4700 -1141.6969  -714.2726 C0            1 RES     
   24359 C0         992.7913 -1140.7273  -713.1257 C0            1 RES     
   24360 C0         992.5700 -1139.2646  -713.5060 C0            1 RES     
   24361 H6         999.1470 -1144.3763  -723.4603 H6            1 RES     
   24362 H6        1000.6309 -1145.2103  -724.0189 H6            1 RES     
   24363 H6        1001.9242 -1143.1589  -723.7043 H6            1 RES     
   24364 H6        1000.4734 -1142.2066  -723.2953 H6            1 RES     
   24365 H6        1001.7757 -1144.4544  -721.6492 H6            1 RES     
   24366 H6        1001.8294 -1142.6810  -721.3792 H6            1 RES     
   24367 H6         999.3958 -1144.5328  -721.0467 H6            1 RES     
   24368 H6        1000.3176 -1143.6073  -719.8213 H6            1 RES     
   24369 H6         999.4926 -1141.4345  -721.1350 H6            1 RES     
   24370 H6         998.4677 -1142.5789  -722.0672 H6            1 RES     
   24371 H6         997.4811 -1143.3643  -719.8057 H6            1 RES     
   24372 H6         997.0570 -1141.7049  -720.3620 H6            1 RES     
   24373 H6         999.3431 -1142.2149  -718.3543 H6            1 RES     
   24374 H6         998.7259 -1140.6420  -718.9839 H6            1 RES     
   24375 H6         996.4683 -1141.2178  -717.9963 H6            1 RES     
   24376 H6         997.2254 -1142.7179  -717.2779 H6            1 RES     
   24377 H6         998.9401 -1141.1094  -716.1858 H6            1 RES     
   24378 H6         997.9144 -1139.7520  -716.7632 H6            1 RES     
   24379 H6         997.2520 -1141.9413  -714.6654 H6            1 RES     
   24380 H6         997.5878 -1140.2010  -714.4316 H6            1 RES     
   24381 H6         995.4107 -1139.6682  -715.6935 H6            1 RES     
   24382 H6         995.3359 -1140.4316  -714.0857 H6            1 RES     
   24383 H6         994.9613 -1141.9426  -716.7117 H6            1 RES     
   24384 H6         994.9389 -1142.7149  -715.1077 H6            1 RES     
   24385 H6         992.7486 -1142.2830  -716.2847 H6            1 RES     
   24386 H6         992.9701 -1140.5261  -716.0863 H6            1 RES     
   24387 H6         991.3821 -1141.6017  -714.4841 H6            1 RES     
   24388 H6         992.6459 -1142.7337  -713.9109 H6            1 RES     
   24389 H6         992.1182 -1140.9724  -712.2758 H6            1 RES     
   24390 H6         993.8168 -1140.8829  -712.7486 H6            1 RES     
   24391 H6         991.5198 -1139.1071  -713.8308 H6            1 RES     
   24392 H6         992.7721 -1138.6196  -712.6253 H6            1 RES     
   24393 H6         993.2546 -1138.9589  -714.3231 H6            1 RES     
   24394 C0        1001.0019 -1143.6856  -726.4298 C0            1 RES     
   24395 C0        1001.7346 -1142.3214  -726.4295 C0            1 RES     
   24396 C0        1003.0624 -1142.2210  -727.2113 C0            1 RES     
   24397 C0        1004.3295 -1142.8243  -726.5560 C0            1 RES     
   24398 C0        1004.5232 -1142.3596  -725.0975 C0            1 RES     
   24399 C0        1005.9281 -1142.5794  -724.5182 C0            1 RES     
   24400 C0        1006.9051 -1141.4835  -724.9748 C0            1 RES     
   24401 C0        1008.2855 -1141.6467  -724.3217 C0            1 RES     
   24402 C0        1009.1778 -1140.4410  -724.6447 C0            1 RES     
   24403 C0        1010.6763 -1140.5700  -724.2954 C0            1 RES     
   24404 C0        1011.0863 -1140.7479  -722.8180 C0            1 RES     
   24405 C0        1010.9253 -1142.1859  -722.2839 C0            1 RES     
   24406 C0        1011.4221 -1142.4065  -720.8391 C0            1 RES     
   24407 C0        1012.9428 -1142.6140  -720.6286 C0            1 RES     
   24408 C0        1013.8905 -1141.4346  -720.8955 C0            1 RES     
   24409 C0        1013.5442 -1140.1962  -720.0712 C0            1 RES     
   24410 H6        1001.6996 -1144.5145  -726.1817 H6            1 RES     
   24411 H6        1000.6807 -1143.8373  -727.4847 H6            1 RES     
   24412 H6        1001.0445 -1141.6139  -726.9340 H6            1 RES     
   24413 H6        1001.9169 -1141.9312  -725.4193 H6            1 RES     
   24414 H6        1002.9381 -1142.6108  -728.2443 H6            1 RES     
   24415 H6        1003.2728 -1141.1313  -727.2967 H6            1 RES     
   24416 H6        1004.3129 -1143.9354  -726.5811 H6            1 RES     
   24417 H6        1005.1850 -1142.4831  -727.1766 H6            1 RES     
   24418 H6        1004.2607 -1141.2859  -724.9717 H6            1 RES     
   24419 H6        1003.8318 -1142.9618  -724.4934 H6            1 RES     
   24420 H6        1006.2957 -1143.6024  -724.7527 H6            1 RES     
   24421 H6        1005.8480 -1142.4867  -723.4132 H6            1 RES     
   24422 H6        1007.0146 -1141.4913  -726.0795 H6            1 RES     
   24423 H6        1006.4838 -1140.4994  -724.6669 H6            1 RES     
   24424 H6        1008.1418 -1141.6951  -723.2251 H6            1 RES     
   24425 H6        1008.7473 -1142.5857  -724.6953 H6            1 RES     
   24426 H6        1009.1418 -1140.2708  -725.7434 H6            1 RES     
   24427 H6        1008.7545 -1139.5386  -724.1494 H6            1 RES     
   24428 H6        1011.1468 -1141.3712  -724.9052 H6            1 RES     
   24429 H6        1011.1214 -1139.6053  -724.6278 H6            1 RES     
   24430 H6        1010.5574 -1140.0110  -722.1754 H6            1 RES     
   24431 H6        1012.1542 -1140.4971  -722.7938 H6            1 RES     
   24432 H6        1009.8518 -1142.4204  -722.2631 H6            1 RES     
   24433 H6        1011.4177 -1142.9218  -722.9558 H6            1 RES     
   24434 H6        1010.9721 -1143.3707  -720.5121 H6            1 RES     
   24435 H6        1011.0149 -1141.6236  -720.1649 H6            1 RES     
   24436 H6        1013.0798 -1142.9037  -719.5632 H6            1 RES     
   24437 H6        1013.2758 -1143.4750  -721.2486 H6            1 RES     
   24438 H6        1014.9186 -1141.7575  -720.6211 H6            1 RES     
   24439 H6        1013.9311 -1141.1901  -721.9711 H6            1 RES     
   24440 H6        1013.5621 -1140.4388  -718.9875 H6            1 RES     
   24441 H6        1014.2915 -1139.3995  -720.2700 H6            1 RES     
   24442 H6        1012.5417 -1139.8074  -720.3428 H6            1 RES     
   24443 C0         997.0865 -1155.5046  -729.8957 C0            1 RES     
   24444 C1         996.5179 -1154.0852  -729.6894 C1            1 RES     
   24445 C1         995.2985 -1153.7960  -730.4718 C1            1 RES     
   24446 S2         995.3990 -1152.0512  -730.9005 S2            1 RES     
   24447 C1         996.2177 -1151.9051  -729.2965 C1            1 RES     
   24448 C1         996.8998 -1153.0543  -728.9433 C1            1 RES     
   24449 C1         995.3820 -1154.8680  -731.4525 C1            1 RES     
   24450 C1         996.3054 -1155.8312  -731.1655 C1            1 RES     
   24451 C1         996.2941 -1156.8875  -732.0942 C1            1 RES     
   24452 C1         995.2892 -1156.7067  -733.0746 C1            1 RES     
   24453 S2         994.4549 -1155.2592  -732.7692 S2            1 RES     
   24454 H3         997.7166 -1153.0404  -728.2404 H3            1 RES     
   24455 H3         996.9600 -1157.7403  -732.0510 H3            1 RES     
   24456 N4         995.9407 -1158.4692  -734.6671 N4            1 RES     
   24457 C1         995.7548 -1159.2738  -735.7554 C1            1 RES     
   24458 C1         994.5476 -1159.2548  -736.4645 C1            1 RES     
   24459 C1         993.5419 -1158.3995  -736.0323 C1            1 RES     
   24460 N4         992.3269 -1158.3109  -736.6268 N4            1 RES     
   24461 S2         991.5654 -1157.1747  -735.7011 S2            1 RES     
   24462 N4         992.7003 -1156.7653  -734.5726 N4            1 RES     
   24463 C1         993.7548 -1157.5539  -734.9097 C1            1 RES     
   24464 C1         994.9871 -1157.5970  -734.2225 C1            1 RES     
   24465 H5         996.5519 -1159.9304  -736.0794 H5            1 RES     
   24466 C0         996.6061 -1156.4542  -728.7505 C0            1 RES     
   24467 C0         997.1563 -1156.0814  -727.3702 C0            1 RES     
   24468 C0         996.6068 -1156.8801  -726.1841 C0            1 RES     
   24469 C0         995.0963 -1156.7494  -725.9314 C0            1 RES     
   24470 C0         994.5913 -1155.2925  -725.9728 C0            1 RES     
   24471 C0         993.1606 -1155.1619  -725.4366 C0            1 RES     
   24472 C0         993.1528 -1155.1546  -723.8999 C0            1 RES     
   24473 C0         991.7301 -1155.0904  -723.3431 C0            1 RES     
   24474 C0         991.7598 -1154.8608  -721.8289 C0            1 RES     
   24475 C0         990.4288 -1155.0666  -721.0785 C0            1 RES     
   24476 C0         989.2110 -1154.2237  -721.5073 C0            1 RES     
   24477 C0         988.4803 -1154.7756  -722.7519 C0            1 RES     
   24478 C0         987.2166 -1153.9978  -723.1698 C0            1 RES     
   24479 C0         985.9082 -1154.2949  -722.3982 C0            1 RES     
   24480 C0         985.8239 -1153.8935  -720.9181 C0            1 RES     
   24481 C0         986.1009 -1152.4089  -720.6894 C0            1 RES     
   24482 H6         995.4979 -1156.3940  -728.7075 H6            1 RES     
   24483 H6         996.8736 -1157.5079  -728.9840 H6            1 RES     
   24484 H6         998.2302 -1156.2608  -727.3764 H6            1 RES     
   24485 H6         996.9774 -1155.0106  -727.1611 H6            1 RES     
   24486 H6         996.8683 -1157.9559  -726.2828 H6            1 RES     
   24487 H6         997.1304 -1156.4886  -725.2831 H6            1 RES     
   24488 H6         994.5266 -1157.3337  -726.6862 H6            1 RES     
   24489 H6         994.9105 -1157.2136  -724.9409 H6            1 RES     
   24490 H6         995.2549 -1154.6066  -725.4019 H6            1 RES     
   24491 H6         994.6000 -1154.9687  -727.0356 H6            1 RES     
   24492 H6         992.5209 -1155.9680  -725.8595 H6            1 RES     
   24493 H6         992.7466 -1154.1838  -725.7665 H6            1 RES     
   24494 H6         993.6455 -1156.0599  -723.4885 H6            1 RES     
   24495 H6         993.7240 -1154.2600  -723.5635 H6            1 RES     
   24496 H6         991.2063 -1154.2352  -723.8160 H6            1 RES     
   24497 H6         991.2192 -1156.0480  -723.5852 H6            1 RES     
   24498 H6         992.4788 -1155.5748  -721.3694 H6            1 RES     
   24499 H6         992.1405 -1153.8315  -721.6423 H6            1 RES     
   24500 H6         990.1441 -1156.1409  -721.0822 H6            1 RES     
   24501 H6         990.6587 -1154.7953  -720.0237 H6            1 RES     
   24502 H6         989.5012 -1153.1584  -721.6351 H6            1 RES     
   24503 H6         988.5198 -1154.2787  -720.6578 H6            1 RES     
   24504 H6         989.1602 -1154.7034  -723.6122 H6            1 RES     
   24505 H6         988.2239 -1155.8495  -722.6226 H6            1 RES     
   24506 H6         986.9948 -1154.3219  -724.2116 H6            1 RES     
   24507 H6         987.4316 -1152.9094  -723.2169 H6            1 RES     
   24508 H6         985.0961 -1153.7514  -722.9296 H6            1 RES     
   24509 H6         985.6842 -1155.3813  -722.4771 H6            1 RES     
   24510 H6         984.7934 -1154.1145  -720.5651 H6            1 RES     
   24511 H6         986.4916 -1154.5163  -720.2982 H6            1 RES     
   24512 H6         985.3873 -1151.7907  -721.2743 H6            1 RES     
   24513 H6         985.9784 -1152.1722  -719.6117 H6            1 RES     
   24514 H6         987.1374 -1152.1483  -720.9853 H6            1 RES     
   24515 C0         998.6408 -1155.5869  -730.1931 C0            1 RES     
   24516 C0         999.5337 -1154.6497  -729.3433 C0            1 RES     
   24517 C0        1001.0642 -1154.8155  -729.4629 C0            1 RES     
   24518 C0        1001.7187 -1156.0039  -728.7156 C0            1 RES     
   24519 C0        1001.2778 -1156.0935  -727.2398 C0            1 RES     
   24520 C0        1002.1613 -1156.9711  -726.3414 C0            1 RES     
   24521 C0        1003.4296 -1156.2254  -725.8951 C0            1 RES     
   24522 C0        1004.2679 -1157.0658  -724.9206 C0            1 RES     
   24523 C0        1005.4213 -1156.2316  -724.3478 C0            1 RES     
   24524 C0        1006.5126 -1156.9954  -723.5669 C0            1 RES     
   24525 C0        1006.1228 -1157.7372  -722.2706 C0            1 RES     
   24526 C0        1005.4496 -1159.1057  -722.5009 C0            1 RES     
   24527 C0        1005.1414 -1159.9073  -721.2182 C0            1 RES     
   24528 C0        1006.3028 -1160.7077  -720.5776 C0            1 RES     
   24529 C0        1007.4717 -1159.9334  -719.9493 C0            1 RES     
   24530 C0        1007.0221 -1158.9559  -718.8652 C0            1 RES     
   24531 H6         998.9584 -1156.6468  -730.0869 H6            1 RES     
   24532 H6         998.8405 -1155.2931  -731.2480 H6            1 RES     
   24533 H6         999.3215 -1153.6244  -729.7108 H6            1 RES     
   24534 H6         999.2828 -1154.6690  -728.2744 H6            1 RES     
   24535 H6        1001.3758 -1154.8103  -730.5294 H6            1 RES     
   24536 H6        1001.4974 -1153.9048  -728.9918 H6            1 RES     
   24537 H6        1001.5002 -1156.9718  -729.2165 H6            1 RES     
   24538 H6        1002.8145 -1155.8322  -728.7714 H6            1 RES     
   24539 H6        1001.2018 -1155.0865  -726.7733 H6            1 RES     
   24540 H6        1000.2795 -1156.5508  -727.2491 H6            1 RES     
   24541 H6        1002.3891 -1157.9398  -726.8378 H6            1 RES     
   24542 H6        1001.5825 -1157.1854  -725.4167 H6            1 RES     
   24543 H6        1004.0501 -1155.9471  -726.7726 H6            1 RES     
   24544 H6        1003.1132 -1155.2932  -725.3742 H6            1 RES     
   24545 H6        1003.6111 -1157.3790  -724.0862 H6            1 RES     
   24546 H6        1004.6592 -1157.9538  -725.4618 H6            1 RES     
   24547 H6        1005.9488 -1155.7446  -725.1975 H6            1 RES     
   24548 H6        1004.9975 -1155.4259  -723.7073 H6            1 RES     
   24549 H6        1007.0511 -1157.6953  -724.2416 H6            1 RES     
   24550 H6        1007.2405 -1156.2080  -723.2678 H6            1 RES     
   24551 H6        1005.5060 -1157.0824  -721.6175 H6            1 RES     
   24552 H6        1007.0746 -1157.9127  -721.7538 H6            1 RES     
   24553 H6        1004.4745 -1158.9270  -722.9756 H6            1 RES     
   24554 H6        1006.0493 -1159.7376  -723.1912 H6            1 RES     
   24555 H6        1004.4120 -1160.6909  -721.5233 H6            1 RES     
   24556 H6        1004.6228 -1159.2656  -720.4749 H6            1 RES     
   24557 H6        1005.8544 -1161.3272  -719.7696 H6            1 RES     
   24558 H6        1006.7169 -1161.4071  -721.3364 H6            1 RES     
   24559 H6        1008.1582 -1160.6747  -719.4849 H6            1 RES     
   24560 H6        1008.0682 -1159.4156  -720.7203 H6            1 RES     
   24561 H6        1006.4721 -1159.4957  -718.0654 H6            1 RES     
   24562 H6        1007.9122 -1158.4665  -718.4170 H6            1 RES     
   24563 H6        1006.3690 -1158.1665  -719.2899 H6            1 RES     
   24564 C0         994.6438 -1163.5758  -739.5330 C0            1 RES     
   24565 C1         994.3344 -1162.1753  -738.9642 C1            1 RES     
   24566 C1         993.7204 -1161.2443  -739.9332 C1            1 RES     
   24567 S2         994.3511 -1159.6139  -739.5068 S2            1 RES     
   24568 C1         994.3138 -1160.2559  -737.8184 C1            1 RES     
   24569 C1         994.5055 -1161.6239  -737.7675 C1            1 RES     
   24570 C1         994.0521 -1161.9330  -741.1717 C1            1 RES     
   24571 C1         994.5182 -1163.2052  -741.0082 C1            1 RES     
   24572 C1         994.7470 -1163.8606  -742.2315 C1            1 RES     
   24573 C1         994.3902 -1163.0455  -743.3324 C1            1 RES     
   24574 S2         993.8114 -1161.5524  -742.7665 S2            1 RES     
   24575 H3         994.8716 -1162.1168  -736.8819 H3            1 RES     
   24576 H3         995.1307 -1164.8697  -742.3166 H3            1 RES     
   24577 N4         995.3665 -1164.3711  -745.1644 N4            1 RES     
   24578 C1         995.5710 -1164.6935  -746.4762 C1            1 RES     
   24579 C1         994.8798 -1164.0272  -747.4954 C1            1 RES     
   24580 C1         993.9783 -1163.0319  -747.1398 C1            1 RES     
   24581 N4         993.2391 -1162.3351  -748.0373 N4            1 RES     
   24582 S2         992.3655 -1161.3261  -747.0645 S2            1 RES     
   24583 N4         992.8777 -1161.7111  -745.5417 N4            1 RES     
   24584 C1         993.7885 -1162.6933  -745.7724 C1            1 RES     
   24585 C1         994.5070 -1163.3836  -744.7724 C1            1 RES     
   24586 H5         996.2808 -1165.4691  -746.7335 H5            1 RES     
   24587 C0         993.4999 -1164.5762  -739.1659 C0            1 RES     
   24588 C0         993.3838 -1164.8542  -737.6638 C0            1 RES     
   24589 C0         992.1907 -1165.7082  -737.2236 C0            1 RES     
   24590 C0         990.8016 -1165.1157  -737.5100 C0            1 RES     
   24591 C0         990.6725 -1163.6324  -737.1069 C0            1 RES     
   24592 C0         989.2161 -1163.1527  -737.1296 C0            1 RES     
   24593 C0         988.4763 -1163.5958  -735.8577 C0            1 RES     
   24594 C0         987.0040 -1163.1836  -735.8888 C0            1 RES     
   24595 C0         986.3502 -1163.4375  -734.5270 C0            1 RES     
   24596 C0         984.8115 -1163.3542  -734.4796 C0            1 RES     
   24597 C0         984.1376 -1162.0390  -734.9192 C0            1 RES     
   24598 C0         983.9993 -1161.8932  -736.4513 C0            1 RES     
   24599 C0         983.2682 -1160.6218  -736.9264 C0            1 RES     
   24600 C0         981.7209 -1160.6339  -736.8921 C0            1 RES     
   24601 C0         981.0192 -1160.6842  -735.5269 C0            1 RES     
   24602 C0         981.4360 -1159.5414  -734.6031 C0            1 RES     
   24603 H6         992.5420 -1164.1312  -739.5090 H6            1 RES     
   24604 H6         993.6356 -1165.5357  -739.7111 H6            1 RES     
   24605 H6         994.2716 -1165.4029  -737.3536 H6            1 RES     
   24606 H6         993.3391 -1163.9047  -737.0992 H6            1 RES     
   24607 H6         992.2524 -1166.7248  -737.6689 H6            1 RES     
   24608 H6         992.2845 -1165.8189  -736.1199 H6            1 RES     
   24609 H6         990.5608 -1165.2016  -738.5918 H6            1 RES     
   24610 H6         990.0786 -1165.7494  -736.9563 H6            1 RES     
   24611 H6         991.1014 -1163.4369  -736.0997 H6            1 RES     
   24612 H6         991.2511 -1163.0367  -737.8451 H6            1 RES     
   24613 H6         988.7135 -1163.5066  -738.0570 H6            1 RES     
   24614 H6         989.2097 -1162.0405  -737.1364 H6            1 RES     
   24615 H6         988.5253 -1164.6963  -735.7238 H6            1 RES     
   24616 H6         988.9788 -1163.1132  -734.9892 H6            1 RES     
   24617 H6         986.9479 -1162.0978  -736.1064 H6            1 RES     
   24618 H6         986.4958 -1163.7715  -736.6842 H6            1 RES     
   24619 H6         986.6073 -1164.4658  -734.1890 H6            1 RES     
   24620 H6         986.7875 -1162.7223  -733.7945 H6            1 RES     
   24621 H6         984.3603 -1164.1980  -735.0450 H6            1 RES     
   24622 H6         984.5569 -1163.5091  -733.4071 H6            1 RES     
   24623 H6         984.6545 -1161.1664  -734.4646 H6            1 RES     
   24624 H6         983.1287 -1162.0853  -734.4919 H6            1 RES     
   24625 H6         985.0070 -1161.8244  -736.8842 H6            1 RES     
   24626 H6         983.5089 -1162.7862  -736.8961 H6            1 RES     
   24627 H6         983.5132 -1160.5205  -738.0077 H6            1 RES     
   24628 H6         983.6867 -1159.7253  -736.4225 H6            1 RES     
   24629 H6         981.3852 -1159.7009  -737.3964 H6            1 RES     
   24630 H6         981.3552 -1161.4883  -737.5027 H6            1 RES     
   24631 H6         979.9248 -1160.6071  -735.7052 H6            1 RES     
   24632 H6         981.1735 -1161.6606  -735.0360 H6            1 RES     
   24633 H6         981.2248 -1158.5628  -735.0837 H6            1 RES     
   24634 H6         980.8620 -1159.6050  -733.6550 H6            1 RES     
   24635 H6         982.5160 -1159.6026  -734.3585 H6            1 RES     
   24636 C0         996.1011 -1164.1284  -739.2470 C0            1 RES     
   24637 C0         996.6420 -1163.8767  -737.8181 C0            1 RES     
   24638 C0         997.9777 -1164.5467  -737.4292 C0            1 RES     
   24639 C0         997.9497 -1166.0552  -737.0790 C0            1 RES     
   24640 C0         996.8490 -1166.4079  -736.0569 C0            1 RES     
   24641 C0         997.0054 -1167.7701  -735.3656 C0            1 RES     
   24642 C0         998.0235 -1167.7059  -734.2152 C0            1 RES     
   24643 C0         998.1120 -1169.0411  -733.4614 C0            1 RES     
   24644 C0         998.9883 -1168.8940  -732.2105 C0            1 RES     
   24645 C0         999.4009 -1170.1969  -731.4921 C0            1 RES     
   24646 C0         998.3029 -1171.0913  -730.8781 C0            1 RES     
   24647 C0         997.5702 -1171.9865  -731.8983 C0            1 RES     
   24648 C0         996.5369 -1172.9595  -731.2913 C0            1 RES     
   24649 C0         997.0696 -1174.2790  -730.6789 C0            1 RES     
   24650 C0         997.9210 -1174.2069  -729.4020 C0            1 RES     
   24651 C0         997.2079 -1173.4985  -728.2520 C0            1 RES     
   24652 H6         996.1160 -1165.2117  -739.4954 H6            1 RES     
   24653 H6         996.8337 -1163.6311  -739.9216 H6            1 RES     
   24654 H6         996.8356 -1162.7855  -737.7621 H6            1 RES     
   24655 H6         995.9124 -1164.1169  -737.0333 H6            1 RES     
   24656 H6         998.7555 -1164.3419  -738.1958 H6            1 RES     
   24657 H6         998.3008 -1164.0392  -736.4927 H6            1 RES     
   24658 H6         997.8136 -1166.6829  -737.9863 H6            1 RES     
   24659 H6         998.9484 -1166.2872  -736.6520 H6            1 RES     
   24660 H6         996.7570 -1165.6281  -735.2690 H6            1 RES     
   24661 H6         995.9095 -1166.4447  -736.6241 H6            1 RES     
   24662 H6         997.2493 -1168.5626  -736.1066 H6            1 RES     
   24663 H6         996.0259 -1168.0202  -734.9030 H6            1 RES     
   24664 H6         999.0286 -1167.4282  -734.5961 H6            1 RES     
   24665 H6         997.6849 -1166.9204  -733.5018 H6            1 RES     
   24666 H6         997.0895 -1169.3235  -733.1442 H6            1 RES     
   24667 H6         998.5330 -1169.8088  -734.1453 H6            1 RES     
   24668 H6         999.9412 -1168.4063  -732.5133 H6            1 RES     
   24669 H6         998.4760 -1168.2162  -731.4914 H6            1 RES     
   24670 H6        1000.0485 -1170.8130  -732.1524 H6            1 RES     
   24671 H6        1000.0347 -1169.8552  -730.6429 H6            1 RES     
   24672 H6         997.5899 -1170.4802  -730.2834 H6            1 RES     
   24673 H6         998.8370 -1171.7459  -730.1780 H6            1 RES     
   24674 H6         996.9967 -1171.3330  -732.5707 H6            1 RES     
   24675 H6         998.2908 -1172.5602  -732.5203 H6            1 RES     
   24676 H6         995.9055 -1173.2955  -732.1443 H6            1 RES     
   24677 H6         995.8622 -1172.4223  -730.5917 H6            1 RES     
   24678 H6         996.1786 -1174.9003  -730.4382 H6            1 RES     
   24679 H6         997.6508 -1174.8246  -731.4542 H6            1 RES     
   24680 H6         998.1426 -1175.2489  -729.0835 H6            1 RES     
   24681 H6         998.9013 -1173.7404  -729.6013 H6            1 RES     
   24682 H6         996.2493 -1174.0100  -728.0212 H6            1 RES     
   24683 H6         997.8512 -1173.5232  -727.3474 H6            1 RES     
   24684 H6         997.0052 -1172.4379  -728.5049 H6            1 RES     
   24685 C0         995.5880 -1166.9753  -751.8431 C0            1 RES     
   24686 C1         995.3238 -1165.7929  -750.8878 C1            1 RES     
   24687 C1         995.4424 -1164.4612  -751.5166 C1            1 RES     
   24688 S2         996.0960 -1163.3770  -750.2378 S2            1 RES     
   24689 C1         995.1320 -1164.4274  -749.1282 C1            1 RES     
   24690 C1         995.0055 -1165.7206  -749.5999 C1            1 RES     
   24691 C1         996.1846 -1164.8259  -752.7141 C1            1 RES     
   24692 C1         996.2580 -1166.1679  -752.9516 C1            1 RES     
   24693 C1         996.9112 -1166.4701  -754.1601 C1            1 RES     
   24694 C1         997.2906 -1165.2958  -754.8534 C1            1 RES     
   24695 S2         996.8149 -1163.9324  -753.9593 S2            1 RES     
   24696 H3         994.7998 -1166.5503  -748.9437 H3            1 RES     
   24697 H3         997.0841 -1167.4763  -754.5210 H3            1 RES     
   24698 N4         998.7446 -1166.2837  -756.5787 N4            1 RES     
   24699 C1         999.4841 -1166.2568  -757.7272 C1            1 RES     
   24700 C1         999.5091 -1165.1160  -758.5385 C1            1 RES     
   24701 C1         998.7607 -1164.0124  -758.1486 C1            1 RES     
   24702 N4         998.6924 -1162.8629  -758.8637 N4            1 RES     
   24703 S2         997.6755 -1161.9393  -757.9470 S2            1 RES     
   24704 N4         997.3112 -1162.9146  -756.6643 N4            1 RES     
   24705 C1         998.0103 -1164.0468  -756.9418 C1            1 RES     
   24706 C1         998.0133 -1165.2131  -756.1467 C1            1 RES     
   24707 H5        1000.0641 -1167.1252  -758.0120 H5            1 RES     
   24708 C0         994.2382 -1167.5494  -752.3837 C0            1 RES     
   24709 C0         993.3665 -1168.1947  -751.3017 C0            1 RES     
   24710 C0         991.9679 -1168.6429  -751.7373 C0            1 RES     
   24711 C0         991.0304 -1167.5283  -752.2284 C0            1 RES     
   24712 C0         991.0158 -1166.2898  -751.3090 C0            1 RES     
   24713 C0         989.8728 -1165.3277  -751.6546 C0            1 RES     
   24714 C0         988.5448 -1165.8234  -751.0612 C0            1 RES     
   24715 C0         987.3789 -1164.9127  -751.4484 C0            1 RES     
   24716 C0         986.1185 -1165.2992  -750.6683 C0            1 RES     
   24717 C0         984.7941 -1164.6778  -751.1552 C0            1 RES     
   24718 C0         984.6832 -1163.1408  -751.2038 C0            1 RES     
   24719 C0         985.3256 -1162.5105  -752.4598 C0            1 RES     
   24720 C0         985.1740 -1160.9808  -752.5773 C0            1 RES     
   24721 C0         983.8301 -1160.4367  -753.1188 C0            1 RES     
   24722 C0         982.5666 -1160.6269  -752.2666 C0            1 RES     
   24723 C0         982.7044 -1160.0418  -750.8624 C0            1 RES     
   24724 H6         993.6684 -1166.7056  -752.8274 H6            1 RES     
   24725 H6         994.4282 -1168.2858  -753.1948 H6            1 RES     
   24726 H6         993.8717 -1169.0947  -750.9552 H6            1 RES     
   24727 H6         993.2430 -1167.5060  -750.4457 H6            1 RES     
   24728 H6         992.0357 -1169.4322  -752.5170 H6            1 RES     
   24729 H6         991.4991 -1169.0999  -750.8370 H6            1 RES     
   24730 H6         991.3247 -1167.1977  -753.2481 H6            1 RES     
   24731 H6         990.0231 -1167.9870  -752.3045 H6            1 RES     
   24732 H6         990.9397 -1166.5702  -750.2356 H6            1 RES     
   24733 H6         991.9803 -1165.7575  -751.4546 H6            1 RES     
   24734 H6         989.8168 -1165.1837  -752.7565 H6            1 RES     
   24735 H6         990.0870 -1164.3411  -751.1881 H6            1 RES     
   24736 H6         988.3085 -1166.8527  -751.4021 H6            1 RES     
   24737 H6         988.6539 -1165.8363  -749.9532 H6            1 RES     
   24738 H6         987.6463 -1163.8692  -751.1856 H6            1 RES     
   24739 H6         987.2095 -1165.0123  -752.5429 H6            1 RES     
   24740 H6         985.9769 -1166.4008  -750.7337 H6            1 RES     
   24741 H6         986.2820 -1165.0428  -749.5975 H6            1 RES     
   24742 H6         984.5138 -1165.0919  -752.1477 H6            1 RES     
   24743 H6         984.0332 -1165.0374  -750.4267 H6            1 RES     
   24744 H6         985.0784 -1162.6927  -750.2665 H6            1 RES     
   24745 H6         983.6058 -1162.9392  -751.2381 H6            1 RES     
   24746 H6         986.4090 -1162.6902  -752.4209 H6            1 RES     
   24747 H6         984.9444 -1162.9892  -753.3878 H6            1 RES     
   24748 H6         985.9205 -1160.6624  -753.3394 H6            1 RES     
   24749 H6         985.4661 -1160.4902  -751.6250 H6            1 RES     
   24750 H6         983.9653 -1159.3417  -753.2604 H6            1 RES     
   24751 H6         983.6425 -1160.8781  -754.1221 H6            1 RES     
   24752 H6         981.7295 -1160.1068  -752.7806 H6            1 RES     
   24753 H6         982.2740 -1161.6901  -752.2207 H6            1 RES     
   24754 H6         982.9438 -1158.9588  -750.9197 H6            1 RES     
   24755 H6         981.7471 -1160.1675  -750.3145 H6            1 RES     
   24756 H6         983.5005 -1160.5620  -750.2919 H6            1 RES     
   24757 C0         996.5919 -1168.0795  -751.3104 C0            1 RES     
   24758 C0         996.4210 -1168.4754  -749.8232 C0            1 RES     
   24759 C0         997.2487 -1169.6693  -749.2999 C0            1 RES     
   24760 C0         996.7637 -1171.0945  -749.6639 C0            1 RES     
   24761 C0         995.2636 -1171.3051  -749.3703 C0            1 RES     
   24762 C0         994.8019 -1172.7687  -749.3224 C0            1 RES     
   24763 C0         995.1364 -1173.4224  -747.9715 C0            1 RES     
   24764 C0         994.5919 -1174.8559  -747.8852 C0            1 RES     
   24765 C0         994.7730 -1175.4141  -746.4675 C0            1 RES     
   24766 C0         994.5293 -1176.9270  -746.2783 C0            1 RES     
   24767 C0         993.1213 -1177.4969  -746.5526 C0            1 RES     
   24768 C0         992.8072 -1177.7196  -748.0462 C0            1 RES     
   24769 C0         991.4427 -1178.3805  -748.3362 C0            1 RES     
   24770 C0         991.3492 -1179.9207  -748.1980 C0            1 RES     
   24771 C0         991.4820 -1180.5437  -746.7999 C0            1 RES     
   24772 C0         990.4593 -1179.9964  -745.8062 C0            1 RES     
   24773 H6         996.5126 -1168.9686  -751.9728 H6            1 RES     
   24774 H6         997.6387 -1167.7092  -751.3892 H6            1 RES     
   24775 H6         996.7724 -1167.5988  -749.2406 H6            1 RES     
   24776 H6         995.3742 -1168.6522  -749.5426 H6            1 RES     
   24777 H6         998.3212 -1169.5466  -749.5630 H6            1 RES     
   24778 H6         997.1764 -1169.6147  -748.1904 H6            1 RES     
   24779 H6         996.9587 -1171.3321  -750.7321 H6            1 RES     
   24780 H6         997.3696 -1171.7897  -749.0451 H6            1 RES     
   24781 H6         994.9599 -1170.8147  -748.4192 H6            1 RES     
   24782 H6         994.7230 -1170.8276  -750.1982 H6            1 RES     
   24783 H6         995.2107 -1173.3396  -750.1847 H6            1 RES     
   24784 H6         993.6931 -1172.7682  -749.4039 H6            1 RES     
   24785 H6         996.2334 -1173.4320  -747.8015 H6            1 RES     
   24786 H6         994.6582 -1172.8150  -747.1696 H6            1 RES     
   24787 H6         993.5096 -1174.8254  -748.1164 H6            1 RES     
   24788 H6         995.1300 -1175.4863  -748.6251 H6            1 RES     
   24789 H6         995.8288 -1175.2421  -746.1623 H6            1 RES     
   24790 H6         994.1224 -1174.8402  -745.7702 H6            1 RES     
   24791 H6         995.2797 -1177.5132  -746.8513 H6            1 RES     
   24792 H6         994.7326 -1177.1066  -745.1986 H6            1 RES     
   24793 H6         992.3452 -1176.8719  -746.0599 H6            1 RES     
   24794 H6         993.1165 -1178.4762  -746.0577 H6            1 RES     
   24795 H6         992.7647 -1176.7352  -748.5330 H6            1 RES     
   24796 H6         993.6100 -1178.3063  -748.5427 H6            1 RES     
   24797 H6         991.2443 -1178.1957  -749.4158 H6            1 RES     
   24798 H6         990.6349 -1177.8657  -747.7742 H6            1 RES     
   24799 H6         990.3501 -1180.2150  -748.5891 H6            1 RES     
   24800 H6         992.1114 -1180.3864  -748.8602 H6            1 RES     
   24801 H6         991.3167 -1181.6387  -746.9001 H6            1 RES     
   24802 H6         992.5077 -1180.4309  -746.4080 H6            1 RES     
   24803 H6         989.4285 -1180.1661  -746.1833 H6            1 RES     
   24804 H6         990.5730 -1180.5193  -744.8335 H6            1 RES     
   24805 H6         990.6131 -1178.9111  -745.6370 H6            1 RES     
   24806 C0        1001.6205 -1166.6983  -763.1357 C0            1 RES     
   24807 C1        1001.1676 -1165.8388  -761.9371 C1            1 RES     
   24808 C1        1001.8290 -1164.5208  -761.8459 C1            1 RES     
   24809 S2        1001.9885 -1164.1783  -760.0866 S2            1 RES     
   24810 C1        1000.4278 -1165.0808  -759.9684 C1            1 RES     
   24811 C1        1000.2933 -1166.0379  -760.9567 C1            1 RES     
   24812 C1        1002.9662 -1164.7613  -762.7216 C1            1 RES     
   24813 C1        1002.8813 -1165.9034  -763.4640 C1            1 RES     
   24814 C1        1003.9597 -1166.0530  -764.3545 C1            1 RES     
   24815 C1        1004.8448 -1164.9502  -764.2888 C1            1 RES     
   24816 S2        1004.2753 -1163.8357  -763.1407 S2            1 RES     
   24817 H3         999.6418 -1166.8888  -760.8428 H3            1 RES     
   24818 H3        1004.0845 -1166.8986  -765.0194 H3            1 RES     
   24819 N4        1006.7227 -1165.8456  -765.6073 N4            1 RES     
   24820 C1        1007.9103 -1165.7538  -766.2763 C1            1 RES     
   24821 C1        1008.5417 -1164.5165  -766.4518 C1            1 RES     
   24822 C1        1007.9291 -1163.3834  -765.9314 C1            1 RES     
   24823 N4        1008.4362 -1162.1327  -766.0577 N4            1 RES     
   24824 S2        1007.3068 -1161.2156  -765.2760 S2            1 RES     
   24825 N4        1006.1917 -1162.3216  -764.7637 N4            1 RES     
   24826 C1        1006.7028 -1163.4950  -765.2213 C1            1 RES     
   24827 C1        1006.0981 -1164.7603  -765.0599 C1            1 RES     
   24828 H5        1008.3742 -1166.6486  -766.6709 H5            1 RES     
   24829 C0        1000.6110 -1166.5534  -764.3206 C0            1 RES     
   24830 C0         999.2216 -1167.1236  -764.0188 C0            1 RES     
   24831 C0         998.1447 -1166.8807  -765.0808 C0            1 RES     
   24832 C0         997.7936 -1165.4095  -765.3537 C0            1 RES     
   24833 C0         997.5826 -1164.5809  -764.0699 C0            1 RES     
   24834 C0         996.9561 -1163.2122  -764.3625 C0            1 RES     
   24835 C0         995.4385 -1163.3399  -764.5676 C0            1 RES     
   24836 C0         994.8024 -1161.9960  -764.9249 C0            1 RES     
   24837 C0         993.2747 -1162.1068  -764.9043 C0            1 RES     
   24838 C0         992.4941 -1160.9312  -765.5253 C0            1 RES     
   24839 C0         992.7215 -1159.5189  -764.9502 C0            1 RES     
   24840 C0         993.9949 -1158.8270  -765.4862 C0            1 RES     
   24841 C0         994.2190 -1157.3860  -764.9861 C0            1 RES     
   24842 C0         993.4328 -1156.2554  -765.6924 C0            1 RES     
   24843 C0         991.9062 -1156.2130  -765.5295 C0            1 RES     
   24844 C0         991.4668 -1156.1599  -764.0676 C0            1 RES     
   24845 H6        1000.4994 -1165.4695  -764.5356 H6            1 RES     
   24846 H6        1001.0182 -1167.0344  -765.2366 H6            1 RES     
   24847 H6         999.3134 -1168.2050  -763.9316 H6            1 RES     
   24848 H6         998.8406 -1166.7223  -763.0615 H6            1 RES     
   24849 H6         998.4219 -1167.3731  -766.0380 H6            1 RES     
   24850 H6         997.2238 -1167.3782  -764.7019 H6            1 RES     
   24851 H6         998.5974 -1164.9247  -765.9491 H6            1 RES     
   24852 H6         996.8779 -1165.4245  -765.9801 H6            1 RES     
   24853 H6         996.9496 -1165.1168  -763.3291 H6            1 RES     
   24854 H6         998.5818 -1164.4201  -763.6112 H6            1 RES     
   24855 H6         997.4630 -1162.7402  -765.2332 H6            1 RES     
   24856 H6         997.1086 -1162.5564  -763.4772 H6            1 RES     
   24857 H6         995.1988 -1164.0624  -765.3751 H6            1 RES     
   24858 H6         994.9997 -1163.7173  -763.6164 H6            1 RES     
   24859 H6         995.1088 -1161.2493  -764.1646 H6            1 RES     
   24860 H6         995.1611 -1161.6998  -765.9349 H6            1 RES     
   24861 H6         992.9703 -1163.0088  -765.4800 H6            1 RES     
   24862 H6         992.9527 -1162.2553  -763.8491 H6            1 RES     
   24863 H6         992.6480 -1160.9024  -766.6257 H6            1 RES     
   24864 H6         991.4241 -1161.1855  -765.3536 H6            1 RES     
   24865 H6         992.6992 -1159.5433  -763.8392 H6            1 RES     
   24866 H6         991.8544 -1158.9374  -765.2858 H6            1 RES     
   24867 H6         994.8692 -1159.3926  -765.1353 H6            1 RES     
   24868 H6         994.0189 -1158.8373  -766.5975 H6            1 RES     
   24869 H6         995.2847 -1157.1529  -765.2084 H6            1 RES     
   24870 H6         994.1094 -1157.3396  -763.8821 H6            1 RES     
   24871 H6         993.8294 -1155.2959  -765.2931 H6            1 RES     
   24872 H6         993.6659 -1156.2814  -766.7794 H6            1 RES     
   24873 H6         991.5362 -1155.2967  -766.0384 H6            1 RES     
   24874 H6         991.4267 -1157.0587  -766.0519 H6            1 RES     
   24875 H6         991.9100 -1155.2740  -763.5655 H6            1 RES     
   24876 H6         990.3605 -1156.0828  -764.0172 H6            1 RES     
   24877 H6         991.7746 -1157.0780  -763.5270 H6            1 RES     
   24878 C0        1002.0106 -1168.1969  -762.7997 C0            1 RES     
   24879 C0        1001.0762 -1168.9220  -761.8003 C0            1 RES     
   24880 C0        1001.3024 -1170.4327  -761.5746 C0            1 RES     
   24881 C0        1000.7837 -1171.4071  -762.6610 C0            1 RES     
   24882 C0         999.3176 -1171.1319  -763.0553 C0            1 RES     
   24883 C0         998.6143 -1172.2702  -763.8087 C0            1 RES     
   24884 C0         998.1277 -1173.3673  -762.8477 C0            1 RES     
   24885 C0         997.3410 -1174.4600  -763.5866 C0            1 RES     
   24886 C0         996.7097 -1175.4366  -762.5855 C0            1 RES     
   24887 C0         996.1161 -1176.7395  -763.1634 C0            1 RES     
   24888 C0         994.9303 -1176.6481  -764.1475 C0            1 RES     
   24889 C0         995.3320 -1176.2904  -765.5930 C0            1 RES     
   24890 C0         994.1734 -1176.2906  -766.6130 C0            1 RES     
   24891 C0         993.7275 -1177.6574  -767.1899 C0            1 RES     
   24892 C0         993.0515 -1178.6678  -766.2503 C0            1 RES     
   24893 C0         991.8071 -1178.1035  -765.5678 C0            1 RES     
   24894 H6        1002.0863 -1168.7582  -763.7561 H6            1 RES     
   24895 H6        1003.0169 -1168.2288  -762.3248 H6            1 RES     
   24896 H6        1001.2692 -1168.4476  -760.8160 H6            1 RES     
   24897 H6        1000.0110 -1168.7786  -762.0256 H6            1 RES     
   24898 H6        1002.3707 -1170.6384  -761.3486 H6            1 RES     
   24899 H6        1000.7208 -1170.6847  -760.6596 H6            1 RES     
   24900 H6        1001.4152 -1171.3737  -763.5751 H6            1 RES     
   24901 H6        1000.8715 -1172.4245  -762.2244 H6            1 RES     
   24902 H6         998.6981 -1170.8680  -762.1699 H6            1 RES     
   24903 H6         999.3433 -1170.2691  -763.7339 H6            1 RES     
   24904 H6         999.2656 -1172.6698  -764.6166 H6            1 RES     
   24905 H6         997.7037 -1171.8410  -764.2805 H6            1 RES     
   24906 H6         998.9841 -1173.8264  -762.3107 H6            1 RES     
   24907 H6         997.4530 -1172.8925  -762.0994 H6            1 RES     
   24908 H6         996.5305 -1173.9700  -764.1599 H6            1 RES     
   24909 H6         998.0330 -1174.9955  -764.2714 H6            1 RES     
   24910 H6         997.5015 -1175.7600  -761.8742 H6            1 RES     
   24911 H6         995.9308 -1174.8975  -762.0011 H6            1 RES     
   24912 H6         996.9186 -1177.3625  -763.6138 H6            1 RES     
   24913 H6         995.7391 -1177.2902  -762.2724 H6            1 RES     
   24914 H6         994.1518 -1175.9578  -763.7563 H6            1 RES     
   24915 H6         994.4990 -1177.6569  -764.1575 H6            1 RES     
   24916 H6         995.7200 -1175.2621  -765.5913 H6            1 RES     
   24917 H6         996.1428 -1176.9555  -765.9612 H6            1 RES     
   24918 H6         994.5556 -1175.7370  -767.4999 H6            1 RES     
   24919 H6         993.3131 -1175.7064  -766.2231 H6            1 RES     
   24920 H6         993.0015 -1177.4375  -768.0038 H6            1 RES     
   24921 H6         994.6063 -1178.1521  -767.6584 H6            1 RES     
   24922 H6         992.7447 -1179.5450  -766.8608 H6            1 RES     
   24923 H6         993.7646 -1179.0579  -765.5036 H6            1 RES     
   24924 H6         991.0715 -1177.7661  -766.3285 H6            1 RES     
   24925 H6         991.3376 -1178.8933  -764.9445 H6            1 RES     
   24926 H6         992.0691 -1177.2510  -764.9085 H6            1 RES     
   24927 C0        1012.2399 -1165.3313  -770.1606 C0            1 RES     
   24928 C1        1011.4462 -1164.7597  -768.9673 C1            1 RES     
   24929 C1        1012.2256 -1163.8640  -768.0881 C1            1 RES     
   24930 S2        1011.5878 -1164.1377  -766.4279 S2            1 RES     
   24931 C1        1010.0190 -1164.3998  -767.2848 C1            1 RES     
   24932 C1        1010.1899 -1164.9051  -768.5600 C1            1 RES     
   24933 C1        1013.5715 -1164.2337  -768.5003 C1            1 RES     
   24934 C1        1013.6314 -1164.9929  -769.6329 C1            1 RES     
   24935 C1        1014.9517 -1165.2566  -770.0401 C1            1 RES     
   24936 C1        1015.8929 -1164.6251  -769.1922 C1            1 RES     
   24937 S2        1015.0733 -1163.7708  -767.9744 S2            1 RES     
   24938 H3        1009.4119 -1165.4523  -769.0666 H3            1 RES     
   24939 H3        1015.2118 -1165.8532  -770.9056 H3            1 RES     
   24940 N4        1017.9573 -1165.7133  -769.9800 N4            1 RES     
   24941 C1        1019.3122 -1165.8688  -770.0610 C1            1 RES     
   24942 C1        1020.1777 -1164.9548  -769.4478 C1            1 RES     
   24943 C1        1019.6248 -1163.8836  -768.7573 C1            1 RES     
   24944 N4        1020.3630 -1162.9269  -768.1430 N4            1 RES     
   24945 S2        1019.2005 -1161.9347  -767.5171 S2            1 RES     
   24946 N4        1017.7852 -1162.6553  -767.9720 N4            1 RES     
   24947 C1        1018.2133 -1163.7436  -768.6649 C1            1 RES     
   24948 C1        1017.3720 -1164.6878  -769.2918 C1            1 RES     
   24949 H5        1019.7240 -1166.7123  -770.6000 H5            1 RES     
   24950 C0        1011.9700 -1164.4860  -771.4476 C0            1 RES     
   24951 C0        1010.5247 -1164.5713  -771.9483 C0            1 RES     
   24952 C0        1010.1574 -1163.6509  -773.1165 C0            1 RES     
   24953 C0        1010.2735 -1162.1430  -772.8427 C0            1 RES     
   24954 C0        1009.6403 -1161.7121  -771.5038 C0            1 RES     
   24955 C0        1009.5101 -1160.1884  -771.3905 C0            1 RES     
   24956 C0        1008.2835 -1159.6868  -772.1686 C0            1 RES     
   24957 C0        1008.1711 -1158.1624  -772.1230 C0            1 RES     
   24958 C0        1006.8313 -1157.7086  -772.7107 C0            1 RES     
   24959 C0        1006.6885 -1156.2025  -773.0079 C0            1 RES     
   24960 C0        1006.8832 -1155.2075  -771.8464 C0            1 RES     
   24961 C0        1008.3647 -1154.9035  -771.5300 C0            1 RES     
   24962 C0        1008.5981 -1153.8599  -770.4195 C0            1 RES     
   24963 C0        1008.4824 -1152.3663  -770.8085 C0            1 RES     
   24964 C0        1007.1053 -1151.8195  -771.2128 C0            1 RES     
   24965 C0        1006.0404 -1152.0426  -770.1407 C0            1 RES     
   24966 H6        1012.1882 -1163.4246  -771.2039 H6            1 RES     
   24967 H6        1012.6630 -1164.7898  -772.2623 H6            1 RES     
   24968 H6        1010.3511 -1165.5856  -772.3041 H6            1 RES     
   24969 H6        1009.8189 -1164.3596  -771.1240 H6            1 RES     
   24970 H6        1010.7567 -1163.9052  -774.0175 H6            1 RES     
   24971 H6        1009.0906 -1163.8657  -773.3513 H6            1 RES     
   24972 H6        1011.3410 -1161.8330  -772.8352 H6            1 RES     
   24973 H6        1009.7858 -1161.6375  -773.7016 H6            1 RES     
   24974 H6        1008.6397 -1162.1725  -771.3504 H6            1 RES     
   24975 H6        1010.3081 -1162.0699  -770.6910 H6            1 RES     
   24976 H6        1010.4524 -1159.7002  -771.7247 H6            1 RES     
   24977 H6        1009.3451 -1159.9255  -770.3225 H6            1 RES     
   24978 H6        1008.3236 -1159.9997  -773.2325 H6            1 RES     
   24979 H6        1007.3795 -1160.1399  -771.7026 H6            1 RES     
   24980 H6        1008.2154 -1157.8387  -771.0634 H6            1 RES     
   24981 H6        1009.0189 -1157.7344  -772.7014 H6            1 RES     
   24982 H6        1006.6702 -1158.2247  -773.6832 H6            1 RES     
   24983 H6        1006.0221 -1158.0329  -772.0185 H6            1 RES     
   24984 H6        1007.3519 -1155.9093  -773.8500 H6            1 RES     
   24985 H6        1005.6405 -1156.0870  -773.3648 H6            1 RES     
   24986 H6        1006.3281 -1155.5480  -770.9456 H6            1 RES     
   24987 H6        1006.4142 -1154.2786  -772.1924 H6            1 RES     
   24988 H6        1008.8357 -1155.8255  -771.1618 H6            1 RES     
   24989 H6        1008.9146 -1154.5942  -772.4452 H6            1 RES     
   24990 H6        1009.6625 -1153.9776  -770.1151 H6            1 RES     
   24991 H6        1007.9854 -1154.1039  -769.5262 H6            1 RES     
   24992 H6        1008.8180 -1151.7813  -769.9239 H6            1 RES     
   24993 H6        1009.1967 -1152.1544  -771.6340 H6            1 RES     
   24994 H6        1007.2101 -1150.7254  -771.3779 H6            1 RES     
   24995 H6        1006.7798 -1152.2376  -772.1809 H6            1 RES     
   24996 H6        1006.3524 -1151.5698  -769.1855 H6            1 RES     
   24997 H6        1005.0838 -1151.5855  -770.4699 H6            1 RES     
   24998 H6        1005.8669 -1153.1250  -769.9728 H6            1 RES     
   24999 C0        1012.1217 -1166.8962  -770.3796 C0            1 RES     
   25000 C0        1010.7024 -1167.4897  -770.2030 C0            1 RES     
   25001 C0        1010.4942 -1168.9730  -770.5782 C0            1 RES     
   25002 C0        1010.3796 -1169.3245  -772.0823 C0            1 RES     
   25003 C0        1009.3661 -1168.4301  -772.8262 C0            1 RES     
   25004 C0        1008.9023 -1168.9569  -774.1920 C0            1 RES     
   25005 C0        1007.8126 -1170.0312  -774.0425 C0            1 RES     
   25006 C0        1007.2794 -1170.4915  -775.4073 C0            1 RES     
   25007 C0        1006.0700 -1171.4182  -775.2260 C0            1 RES     
   25008 C0        1005.5842 -1172.1821  -776.4768 C0            1 RES     
   25009 C0        1005.0569 -1171.3788  -777.6848 C0            1 RES     
   25010 C0        1006.1617 -1170.7840  -778.5818 C0            1 RES     
   25011 C0        1005.6570 -1170.0608  -779.8487 C0            1 RES     
   25012 C0        1005.2848 -1170.9354  -781.0720 C0            1 RES     
   25013 C0        1004.0600 -1171.8576  -780.9723 C0            1 RES     
   25014 C0        1002.7777 -1171.1059  -780.6209 C0            1 RES     
   25015 H6        1012.5345 -1167.1381  -771.3829 H6            1 RES     
   25016 H6        1012.7503 -1167.4316  -769.6330 H6            1 RES     
   25017 H6        1010.4895 -1167.4310  -769.1156 H6            1 RES     
   25018 H6        1009.9257 -1166.9079  -770.7170 H6            1 RES     
   25019 H6        1011.2610 -1169.6113  -770.0891 H6            1 RES     
   25020 H6        1009.5095 -1169.2527  -770.1409 H6            1 RES     
   25021 H6        1011.3640 -1169.2563  -772.5940 H6            1 RES     
   25022 H6        1010.0481 -1170.3837  -772.1231 H6            1 RES     
   25023 H6        1008.4636 -1168.2315  -772.2070 H6            1 RES     
   25024 H6        1009.8805 -1167.4776  -773.0103 H6            1 RES     
   25025 H6        1009.7687 -1169.3097  -774.7934 H6            1 RES     
   25026 H6        1008.4316 -1168.1065  -774.7316 H6            1 RES     
   25027 H6        1008.1999 -1170.9073  -773.4814 H6            1 RES     
   25028 H6        1006.9694 -1169.5857  -773.4669 H6            1 RES     
   25029 H6        1006.9547 -1169.5940  -775.9683 H6            1 RES     
   25030 H6        1008.0952 -1171.0154  -775.9499 H6            1 RES     
   25031 H6        1006.3451 -1172.2023  -774.4864 H6            1 RES     
   25032 H6        1005.2284 -1170.8298  -774.7965 H6            1 RES     
   25033 H6        1006.3657 -1172.8927  -776.8224 H6            1 RES     
   25034 H6        1004.7281 -1172.7932  -776.1120 H6            1 RES     
   25035 H6        1004.3375 -1170.6001  -777.3507 H6            1 RES     
   25036 H6        1004.4959 -1172.1094  -778.2809 H6            1 RES     
   25037 H6        1006.6934 -1170.0179  -778.0000 H6            1 RES     
   25038 H6        1006.9027 -1171.5590  -778.8743 H6            1 RES     
   25039 H6        1006.5161 -1169.4504  -780.2069 H6            1 RES     
   25040 H6        1004.8475 -1169.3457  -779.5908 H6            1 RES     
   25041 H6        1005.0949 -1170.2365  -781.9166 H6            1 RES     
   25042 H6        1006.1652 -1171.5552  -781.3501 H6            1 RES     
   25043 H6        1003.9183 -1172.3407  -781.9638 H6            1 RES     
   25044 H6        1004.2378 -1172.6824  -780.2607 H6            1 RES     
   25045 H6        1002.5770 -1170.3154  -781.3749 H6            1 RES     
   25046 H6        1001.9239 -1171.8155  -780.6134 H6            1 RES     
   25047 H6        1002.8529 -1170.6427  -779.6160 H6            1 RES     
   25048 C0        1024.9597 -1165.9327  -771.5149 C0            1 RES     
   25049 C1        1023.8207 -1165.4894  -770.5732 C1            1 RES     
   25050 C1        1024.2422 -1165.2417  -769.1790 C1            1 RES     
   25051 S2        1022.8490 -1165.7393  -768.1548 S2            1 RES     
   25052 C1        1021.8640 -1165.1458  -769.5482 C1            1 RES     
   25053 C1        1022.5217 -1165.2791  -770.7567 C1            1 RES     
   25054 C1        1025.5201 -1165.9382  -769.1867 C1            1 RES     
   25055 C1        1025.9651 -1166.2972  -770.4260 C1            1 RES     
   25056 C1        1027.2392 -1166.8921  -770.3936 C1            1 RES     
   25057 C1        1027.7628 -1166.9276  -769.0790 C1            1 RES     
   25058 S2        1026.6450 -1166.2324  -768.0059 S2            1 RES     
   25059 H3        1021.9910 -1165.3292  -771.6933 H3            1 RES     
   25060 H3        1027.7597 -1167.2592  -771.2694 H3            1 RES     
   25061 N4        1029.6958 -1168.4104  -769.4418 N4            1 RES     
   25062 C1        1030.8647 -1169.0186  -769.0808 C1            1 RES     
   25063 C1        1031.4907 -1168.7078  -767.8675 C1            1 RES     
   25064 C1        1030.8956 -1167.7632  -767.0408 C1            1 RES     
   25065 N4        1031.4203 -1167.3686  -765.8549 N4            1 RES     
   25066 S2        1030.3186 -1166.2521  -765.3379 S2            1 RES     
   25067 N4        1029.1836 -1166.2380  -766.5383 N4            1 RES     
   25068 C1        1029.6697 -1167.1514  -767.4197 C1            1 RES     
   25069 C1        1029.0651 -1167.4937  -768.6485 C1            1 RES     
   25070 H5        1031.3108 -1169.7552  -769.7364 H5            1 RES     
   25071 C0        1025.5084 -1164.7086  -772.3177 C0            1 RES     
   25072 C0        1024.4933 -1164.1089  -773.2959 C0            1 RES     
   25073 C0        1024.9164 -1162.8181  -774.0039 C0            1 RES     
   25074 C0        1025.1784 -1161.6092  -773.0915 C0            1 RES     
   25075 C0        1024.0799 -1161.3917  -772.0308 C0            1 RES     
   25076 C0        1024.2108 -1160.0318  -771.3344 C0            1 RES     
   25077 C0        1023.6299 -1158.9119  -772.2119 C0            1 RES     
   25078 C0        1023.8085 -1157.5379  -771.5648 C0            1 RES     
   25079 C0        1023.0303 -1156.4750  -772.3465 C0            1 RES     
   25080 C0        1023.3433 -1155.0052  -772.0019 C0            1 RES     
   25081 C0        1023.1484 -1154.5394  -770.5451 C0            1 RES     
   25082 C0        1024.3252 -1154.9049  -769.6129 C0            1 RES     
   25083 C0        1024.1973 -1154.3953  -768.1635 C0            1 RES     
   25084 C0        1024.5750 -1152.9194  -767.8903 C0            1 RES     
   25085 C0        1023.6952 -1151.8148  -768.4941 C0            1 RES     
   25086 C0        1022.2272 -1151.9387  -768.0908 C0            1 RES     
   25087 H6        1025.7853 -1163.9227  -771.5835 H6            1 RES     
   25088 H6        1026.4323 -1164.9901  -772.8686 H6            1 RES     
   25089 H6        1024.3173 -1164.8367  -774.0864 H6            1 RES     
   25090 H6        1023.5359 -1163.9070  -772.7810 H6            1 RES     
   25091 H6        1025.8109 -1162.9961  -774.6392 H6            1 RES     
   25092 H6        1024.0732 -1162.5492  -774.6791 H6            1 RES     
   25093 H6        1026.1495 -1161.7274  -772.5634 H6            1 RES     
   25094 H6        1025.2697 -1160.7319  -773.7646 H6            1 RES     
   25095 H6        1023.0600 -1161.4782  -772.4655 H6            1 RES     
   25096 H6        1024.1936 -1162.1908  -771.2672 H6            1 RES     
   25097 H6        1025.2726 -1159.8462  -771.0589 H6            1 RES     
   25098 H6        1023.6100 -1160.0537  -770.3987 H6            1 RES     
   25099 H6        1024.1120 -1158.8896  -773.2112 H6            1 RES     
   25100 H6        1022.5447 -1159.1193  -772.3496 H6            1 RES     
   25101 H6        1023.4029 -1157.5801  -770.5337 H6            1 RES     
   25102 H6        1024.8945 -1157.2992  -771.5515 H6            1 RES     
   25103 H6        1023.2568 -1156.5857  -773.4301 H6            1 RES     
   25104 H6        1021.9432 -1156.6698  -772.2073 H6            1 RES     
   25105 H6        1024.3711 -1154.7405  -772.3315 H6            1 RES     
   25106 H6        1022.6388 -1154.4155  -772.6304 H6            1 RES     
   25107 H6        1022.1761 -1154.9027  -770.1476 H6            1 RES     
   25108 H6        1023.0930 -1153.4459  -770.6062 H6            1 RES     
   25109 H6        1024.3731 -1155.9996  -769.5298 H6            1 RES     
   25110 H6        1025.2939 -1154.5631  -770.0376 H6            1 RES     
   25111 H6        1024.9405 -1154.9775  -767.5734 H6            1 RES     
   25112 H6        1023.1980 -1154.6501  -767.7520 H6            1 RES     
   25113 H6        1024.5533 -1152.7857  -766.7863 H6            1 RES     
   25114 H6        1025.6226 -1152.7500  -768.2224 H6            1 RES     
   25115 H6        1024.0769 -1150.8381  -768.1257 H6            1 RES     
   25116 H6        1023.7979 -1151.7801  -769.5924 H6            1 RES     
   25117 H6        1022.1297 -1151.9162  -766.9848 H6            1 RES     
   25118 H6        1021.6542 -1151.0887  -768.5172 H6            1 RES     
   25119 H6        1021.7876 -1152.8807  -768.4770 H6            1 RES     
   25120 C0        1024.6585 -1167.2072  -772.4070 C0            1 RES     
   25121 C0        1023.2430 -1167.2652  -773.0320 C0            1 RES     
   25122 C0        1022.9554 -1168.3888  -774.0514 C0            1 RES     
   25123 C0        1023.5079 -1168.2146  -775.4878 C0            1 RES     
   25124 C0        1023.1696 -1166.8356  -776.0917 C0            1 RES     
   25125 C0        1023.3228 -1166.7295  -777.6159 C0            1 RES     
   25126 C0        1022.1089 -1167.3245  -778.3482 C0            1 RES     
   25127 C0        1022.2151 -1167.1346  -779.8686 C0            1 RES     
   25128 C0        1020.9122 -1167.5650  -780.5553 C0            1 RES     
   25129 C0        1020.9455 -1167.6941  -782.0936 C0            1 RES     
   25130 C0        1021.2278 -1166.4364  -782.9429 C0            1 RES     
   25131 C0        1022.7187 -1166.0503  -783.0282 C0            1 RES     
   25132 C0        1023.0328 -1164.8544  -783.9522 C0            1 RES     
   25133 C0        1023.1287 -1165.1308  -785.4735 C0            1 RES     
   25134 C0        1021.8525 -1165.5275  -786.2315 C0            1 RES     
   25135 C0        1020.7326 -1164.4989  -786.0879 C0            1 RES     
   25136 H6        1025.4447 -1167.2761  -773.1897 H6            1 RES     
   25137 H6        1024.7358 -1168.1293  -771.7882 H6            1 RES     
   25138 H6        1022.5522 -1167.4558  -772.1848 H6            1 RES     
   25139 H6        1022.9368 -1166.3165  -773.4925 H6            1 RES     
   25140 H6        1023.2540 -1169.3764  -773.6392 H6            1 RES     
   25141 H6        1021.8485 -1168.4051  -774.1682 H6            1 RES     
   25142 H6        1024.6089 -1168.3631  -775.5229 H6            1 RES     
   25143 H6        1023.0373 -1169.0170  -776.0945 H6            1 RES     
   25144 H6        1022.1392 -1166.5131  -775.8239 H6            1 RES     
   25145 H6        1023.8835 -1166.1280  -775.6499 H6            1 RES     
   25146 H6        1024.2837 -1167.1804  -777.9479 H6            1 RES     
   25147 H6        1023.3431 -1165.6477  -777.8714 H6            1 RES     
   25148 H6        1022.0019 -1168.4049  -778.1164 H6            1 RES     
   25149 H6        1021.1983 -1166.7927  -777.9896 H6            1 RES     
   25150 H6        1022.3800 -1166.0582  -780.0684 H6            1 RES     
   25151 H6        1023.0713 -1167.7354  -780.2434 H6            1 RES     
   25152 H6        1020.6417 -1168.5757  -780.1775 H6            1 RES     
   25153 H6        1020.1007 -1166.8645  -780.2561 H6            1 RES     
   25154 H6        1021.6417 -1168.5052  -782.3976 H6            1 RES     
   25155 H6        1019.9189 -1168.0286  -782.3649 H6            1 RES     
   25156 H6        1020.6035 -1165.5843  -782.5967 H6            1 RES     
   25157 H6        1020.8901 -1166.7014  -783.9527 H6            1 RES     
   25158 H6        1023.0450 -1165.7391  -782.0258 H6            1 RES     
   25159 H6        1023.3423 -1166.9192  -783.3305 H6            1 RES     
   25160 H6        1024.0587 -1164.5234  -783.6746 H6            1 RES     
   25161 H6        1022.3554 -1164.0031  -783.7291 H6            1 RES     
   25162 H6        1023.5059 -1164.1955  -785.9435 H6            1 RES     
   25163 H6        1023.8950 -1165.9177  -785.6468 H6            1 RES     
   25164 H6        1022.1111 -1165.6105  -787.3097 H6            1 RES     
   25165 H6        1021.5040 -1166.5303  -785.9296 H6            1 RES     
   25166 H6        1021.0750 -1163.5055  -786.4477 H6            1 RES     
   25167 H6        1019.8596 -1164.8162  -786.6961 H6            1 RES     
   25168 H6        1020.4067 -1164.4131  -785.0313 H6            1 RES     
   25169 C0        1036.3842 -1170.7087  -768.2501 C0            1 RES     
   25170 C1        1035.0448 -1170.1786  -767.6974 C1            1 RES     
   25171 C1        1034.7875 -1170.5242  -766.2841 C1            1 RES     
   25172 S2        1033.0076 -1170.7566  -766.1574 S2            1 RES     
   25173 C1        1032.9457 -1169.4626  -767.4167 C1            1 RES     
   25174 C1        1034.0609 -1169.4646  -768.2335 C1            1 RES     
   25175 C1        1035.7500 -1171.6035  -766.1214 C1            1 RES     
   25176 C1        1036.6537 -1171.7182  -767.1377 C1            1 RES     
   25177 C1        1037.6137 -1172.7184  -766.8997 C1            1 RES     
   25178 C1        1037.4268 -1173.3279  -765.6359 C1            1 RES     
   25179 S2        1036.0916 -1172.6217  -764.8593 S2            1 RES     
   25180 H3        1034.0444 -1169.0394  -769.2236 H3            1 RES     
   25181 H3        1038.4067 -1172.9748  -767.5912 H3            1 RES     
   25182 N4        1038.9672 -1175.2364  -765.8634 N4            1 RES     
   25183 C1        1039.6773 -1176.3065  -765.3975 C1            1 RES     
   25184 C1        1039.6939 -1176.6178  -764.0325 C1            1 RES     
   25185 C1        1038.9728 -1175.8096  -763.1626 C1            1 RES     
   25186 N4        1038.9321 -1176.0018  -761.8214 N4            1 RES     
   25187 S2        1037.9586 -1174.7657  -761.3193 S2            1 RES     
   25188 N4        1037.5632 -1173.9855  -762.7207 N4            1 RES     
   25189 C1        1038.2231 -1174.7102  -763.6625 C1            1 RES     
   25190 C1        1038.2261 -1174.4300  -765.0459 C1            1 RES     
   25191 H5        1040.2294 -1176.9269  -766.0916 H5            1 RES     
   25192 C0        1037.4763 -1169.5916  -768.1919 C0            1 RES     
   25193 C0        1037.1912 -1168.4033  -769.1159 C0            1 RES     
   25194 C0        1038.1434 -1167.2093  -768.9966 C0            1 RES     
   25195 C0        1038.1669 -1166.5059  -767.6302 C0            1 RES     
   25196 C0        1036.7612 -1166.2250  -767.0606 C0            1 RES     
   25197 C0        1036.8052 -1165.2767  -765.8563 C0            1 RES     
   25198 C0        1036.9452 -1163.8172  -766.3165 C0            1 RES     
   25199 C0        1037.0562 -1162.8594  -765.1296 C0            1 RES     
   25200 C0        1036.9703 -1161.4064  -765.6069 C0            1 RES     
   25201 C0        1037.3597 -1160.3240  -764.5804 C0            1 RES     
   25202 C0        1036.5870 -1160.2704  -763.2473 C0            1 RES     
   25203 C0        1037.0781 -1161.2973  -762.2024 C0            1 RES     
   25204 C0        1036.3748 -1161.2272  -760.8323 C0            1 RES     
   25205 C0        1036.8549 -1160.1420  -759.8386 C0            1 RES     
   25206 C0        1036.6051 -1158.6674  -760.1880 C0            1 RES     
   25207 C0        1035.1309 -1158.3596  -760.4429 C0            1 RES     
   25208 H6        1037.5154 -1169.2147  -767.1479 H6            1 RES     
   25209 H6        1038.4761 -1170.0153  -768.4307 H6            1 RES     
   25210 H6        1037.2768 -1168.7491  -770.1448 H6            1 RES     
   25211 H6        1036.1644 -1168.0270  -768.9531 H6            1 RES     
   25212 H6        1039.1786 -1167.5060  -769.2719 H6            1 RES     
   25213 H6        1037.7963 -1166.4652  -769.7483 H6            1 RES     
   25214 H6        1038.7231 -1167.1202  -766.8892 H6            1 RES     
   25215 H6        1038.7376 -1165.5662  -767.7795 H6            1 RES     
   25216 H6        1036.0787 -1165.8010  -767.8293 H6            1 RES     
   25217 H6        1036.3380 -1167.1971  -766.7281 H6            1 RES     
   25218 H6        1037.6189 -1165.5816  -765.1615 H6            1 RES     
   25219 H6        1035.8390 -1165.3523  -765.3106 H6            1 RES     
   25220 H6        1037.8401 -1163.6794  -766.9580 H6            1 RES     
   25221 H6        1036.0412 -1163.5636  -766.9150 H6            1 RES     
   25222 H6        1036.2076 -1163.0522  -764.4424 H6            1 RES     
   25223 H6        1038.0264 -1163.0490  -764.6204 H6            1 RES     
   25224 H6        1037.6609 -1161.2679  -766.4682 H6            1 RES     
   25225 H6        1035.9348 -1161.2226  -765.9716 H6            1 RES     
   25226 H6        1038.4491 -1160.3684  -764.3651 H6            1 RES     
   25227 H6        1037.1716 -1159.3610  -765.1060 H6            1 RES     
   25228 H6        1035.4934 -1160.3533  -763.4282 H6            1 RES     
   25229 H6        1036.7816 -1159.2663  -762.8515 H6            1 RES     
   25230 H6        1036.8662 -1162.3060  -762.5832 H6            1 RES     
   25231 H6        1038.1773 -1161.2239  -762.0545 H6            1 RES     
   25232 H6        1036.6158 -1162.1864  -760.3211 H6            1 RES     
   25233 H6        1035.2725 -1161.2086  -760.9652 H6            1 RES     
   25234 H6        1036.3346 -1160.3410  -758.8758 H6            1 RES     
   25235 H6        1037.9439 -1160.2770  -759.6588 H6            1 RES     
   25236 H6        1036.9460 -1158.0526  -759.3271 H6            1 RES     
   25237 H6        1037.2249 -1158.3509  -761.0446 H6            1 RES     
   25238 H6        1034.5230 -1158.6298  -759.5536 H6            1 RES     
   25239 H6        1035.0094 -1157.2742  -760.6422 H6            1 RES     
   25240 H6        1034.7556 -1158.9174  -761.3249 H6            1 RES     
   25241 C0        1036.3047 -1171.4618  -769.6420 C0            1 RES     
   25242 C0        1035.3799 -1170.8122  -770.7006 C0            1 RES     
   25243 C0        1035.4022 -1171.3995  -772.1285 C0            1 RES     
   25244 C0        1036.5961 -1171.0244  -773.0412 C0            1 RES     
   25245 C0        1036.8634 -1169.5052  -773.0760 C0            1 RES     
   25246 C0        1037.7440 -1169.0187  -774.2360 C0            1 RES     
   25247 C0        1036.9386 -1168.8854  -775.5389 C0            1 RES     
   25248 C0        1037.7935 -1168.3089  -776.6772 C0            1 RES     
   25249 C0        1036.9221 -1168.0112  -777.9046 C0            1 RES     
   25250 C0        1037.6609 -1167.6845  -779.2205 C0            1 RES     
   25251 C0        1038.5535 -1166.4268  -779.2836 C0            1 RES     
   25252 C0        1039.9463 -1166.6049  -778.6454 C0            1 RES     
   25253 C0        1040.8900 -1165.3913  -778.7851 C0            1 RES     
   25254 C0        1041.6456 -1165.2226  -780.1269 C0            1 RES     
   25255 C0        1040.8378 -1164.8839  -781.3891 C0            1 RES     
   25256 C0        1040.0102 -1163.6089  -781.2402 C0            1 RES     
   25257 H6        1037.3388 -1171.5792  -770.0322 H6            1 RES     
   25258 H6        1035.8955 -1172.4865  -769.4952 H6            1 RES     
   25259 H6        1034.3461 -1170.9778  -770.3330 H6            1 RES     
   25260 H6        1035.5225 -1169.7270  -770.7886 H6            1 RES     
   25261 H6        1035.2686 -1172.5021  -772.0998 H6            1 RES     
   25262 H6        1034.5068 -1170.9754  -772.6360 H6            1 RES     
   25263 H6        1037.5269 -1171.5472  -772.7318 H6            1 RES     
   25264 H6        1036.3268 -1171.3827  -774.0573 H6            1 RES     
   25265 H6        1035.9157 -1168.9230  -773.0928 H6            1 RES     
   25266 H6        1037.4014 -1169.2710  -772.1479 H6            1 RES     
   25267 H6        1038.6379 -1169.6699  -774.3525 H6            1 RES     
   25268 H6        1038.0941 -1167.9955  -773.9784 H6            1 RES     
   25269 H6        1036.5259 -1169.8688  -775.8472 H6            1 RES     
   25270 H6        1036.0908 -1168.1889  -775.3476 H6            1 RES     
   25271 H6        1038.2397 -1167.3596  -776.3232 H6            1 RES     
   25272 H6        1038.5890 -1169.0417  -776.9313 H6            1 RES     
   25273 H6        1036.3130 -1168.9163  -778.1220 H6            1 RES     
   25274 H6        1036.2203 -1167.1843  -777.6543 H6            1 RES     
   25275 H6        1038.2447 -1168.5656  -779.5641 H6            1 RES     
   25276 H6        1036.8463 -1167.5253  -779.9624 H6            1 RES     
   25277 H6        1038.0192 -1165.5482  -778.8615 H6            1 RES     
   25278 H6        1038.6955 -1166.2402  -780.3555 H6            1 RES     
   25279 H6        1039.8072 -1166.7443  -777.5641 H6            1 RES     
   25280 H6        1040.4559 -1167.5110  -779.0387 H6            1 RES     
   25281 H6        1041.7004 -1165.5552  -778.0398 H6            1 RES     
   25282 H6        1040.3688 -1164.4579  -778.4844 H6            1 RES     
   25283 H6        1042.3754 -1164.3959  -779.9791 H6            1 RES     
   25284 H6        1042.2316 -1166.1463  -780.3264 H6            1 RES     
   25285 H6        1041.5586 -1164.7342  -782.2224 H6            1 RES     
   25286 H6        1040.1998 -1165.7313  -781.6944 H6            1 RES     
   25287 H6        1040.6689 -1162.7505  -780.9891 H6            1 RES     
   25288 H6        1039.4915 -1163.3913  -782.1974 H6            1 RES     
   25289 H6        1039.2426 -1163.7252  -780.4481 H6            1 RES     
   25290 C0        1043.6784 -1180.0588  -763.4170 C0            1 RES     
   25291 C1        1042.3702 -1179.2644  -763.2223 C1            1 RES     
   25292 C1        1041.4069 -1179.8917  -762.2942 C1            1 RES     
   25293 S2        1039.7767 -1179.4845  -762.9380 S2            1 RES     
   25294 C1        1040.5776 -1177.9483  -763.4505 C1            1 RES     
   25295 C1        1041.9228 -1178.1167  -763.7203 C1            1 RES     
   25296 C1        1041.9434 -1181.2443  -762.2688 C1            1 RES     
   25297 C1        1043.1809 -1181.3763  -762.8288 C1            1 RES     
   25298 C1        1043.6947 -1182.6801  -762.7084 C1            1 RES     
   25299 C1        1042.8117 -1183.5223  -761.9908 C1            1 RES     
   25300 S2        1041.4344 -1182.6398  -761.5341 S2            1 RES     
   25301 H3        1042.4648 -1177.4437  -764.3643 H3            1 RES     
   25302 H3        1044.6545 -1182.9925  -763.1005 H3            1 RES     
   25303 N4        1043.8683 -1185.7033  -762.4313 N4            1 RES     
   25304 C1        1044.0454 -1187.0448  -762.2432 C1            1 RES     
   25305 C1        1043.3465 -1187.7277  -761.2404 C1            1 RES     
   25306 C1        1042.4703 -1187.0067  -760.4389 C1            1 RES     
   25307 N4        1041.7567 -1187.5564  -759.4259 N4            1 RES     
   25308 S2        1040.9235 -1186.2572  -758.8382 S2            1 RES     
   25309 N4        1041.4068 -1185.0112  -759.8093 N4            1 RES     
   25310 C1        1042.2812 -1185.6149  -760.6570 C1            1 RES     
   25311 C1        1042.9997 -1184.9612  -761.6812 C1            1 RES     
   25312 H5        1044.7294 -1187.5900  -762.8807 H5            1 RES     
   25313 C0        1044.8034 -1179.4879  -762.4936 C0            1 RES     
   25314 C0        1045.2323 -1178.0624  -762.8553 C0            1 RES     
   25315 C0        1046.2231 -1177.3905  -761.8996 C0            1 RES     
   25316 C0        1045.7270 -1177.1802  -760.4601 C0            1 RES     
   25317 C0        1044.3054 -1176.5866  -760.3819 C0            1 RES     
   25318 C0        1043.9518 -1176.1197  -758.9647 C0            1 RES     
   25319 C0        1044.5759 -1174.7462  -758.6717 C0            1 RES     
   25320 C0        1044.2900 -1174.2903  -757.2404 C0            1 RES     
   25321 C0        1044.7274 -1172.8351  -757.0467 C0            1 RES     
   25322 C0        1044.7809 -1172.3235  -755.5933 C0            1 RES     
   25323 C0        1043.4922 -1172.3865  -754.7493 C0            1 RES     
   25324 C0        1043.2133 -1173.7803  -754.1436 C0            1 RES     
   25325 C0        1041.9695 -1173.8650  -753.2366 C0            1 RES     
   25326 C0        1042.1169 -1173.3744  -751.7761 C0            1 RES     
   25327 C0        1042.3571 -1171.8780  -751.5272 C0            1 RES     
   25328 C0        1041.2762 -1170.9929  -752.1448 C0            1 RES     
   25329 H6        1044.4111 -1179.4767  -761.4546 H6            1 RES     
   25330 H6        1045.6914 -1180.1569  -762.5071 H6            1 RES     
   25331 H6        1045.7302 -1178.0961  -763.8230 H6            1 RES     
   25332 H6        1044.3482 -1177.4031  -762.9347 H6            1 RES     
   25333 H6        1047.1836 -1177.9495  -761.8762 H6            1 RES     
   25334 H6        1046.4302 -1176.3853  -762.3308 H6            1 RES     
   25335 H6        1045.7295 -1178.1439  -759.9062 H6            1 RES     
   25336 H6        1046.4701 -1176.5147  -759.9744 H6            1 RES     
   25337 H6        1044.1709 -1175.7367  -761.0863 H6            1 RES     
   25338 H6        1043.5947 -1177.3885  -760.6760 H6            1 RES     
   25339 H6        1044.2573 -1176.8906  -758.2229 H6            1 RES     
   25340 H6        1042.8488 -1175.9943  -758.8980 H6            1 RES     
   25341 H6        1045.6759 -1174.7624  -758.8172 H6            1 RES     
   25342 H6        1044.1371 -1174.0161  -759.3887 H6            1 RES     
   25343 H6        1043.1971 -1174.3531  -757.0636 H6            1 RES     
   25344 H6        1044.8405 -1174.9618  -756.5458 H6            1 RES     
   25345 H6        1045.7576 -1172.7113  -757.4483 H6            1 RES     
   25346 H6        1044.0507 -1172.1874  -757.6479 H6            1 RES     
   25347 H6        1045.6024 -1172.8238  -755.0366 H6            1 RES     
   25348 H6        1045.0585 -1171.2495  -755.6860 H6            1 RES     
   25349 H6        1042.6259 -1172.0072  -755.3335 H6            1 RES     
   25350 H6        1043.6650 -1171.6873  -753.9224 H6            1 RES     
   25351 H6        1043.0176 -1174.4818  -754.9664 H6            1 RES     
   25352 H6        1044.0983 -1174.1604  -753.5887 H6            1 RES     
   25353 H6        1041.7449 -1174.9507  -753.1349 H6            1 RES     
   25354 H6        1041.0927 -1173.4071  -753.7409 H6            1 RES     
   25355 H6        1041.1722 -1173.6436  -751.2542 H6            1 RES     
   25356 H6        1042.9374 -1173.9442  -751.2874 H6            1 RES     
   25357 H6        1042.3571 -1171.7129  -750.4280 H6            1 RES     
   25358 H6        1043.3590 -1171.5726  -751.8748 H6            1 RES     
   25359 H6        1040.2778 -1171.2714  -751.7460 H6            1 RES     
   25360 H6        1041.4788 -1169.9313  -751.8909 H6            1 RES     
   25361 H6        1041.2679 -1171.0890  -753.2496 H6            1 RES     
   25362 C0        1044.1292 -1180.2851  -764.9192 C0            1 RES     
   25363 C0        1043.9697 -1179.0622  -765.8555 C0            1 RES     
   25364 C0        1044.5571 -1179.1686  -767.2795 C0            1 RES     
   25365 C0        1046.0890 -1179.0045  -767.4390 C0            1 RES     
   25366 C0        1046.6303 -1177.7501  -766.7220 C0            1 RES     
   25367 C0        1048.0338 -1177.3004  -767.1530 C0            1 RES     
   25368 C0        1047.9929 -1176.5050  -768.4682 C0            1 RES     
   25369 C0        1049.3815 -1175.9728  -768.8522 C0            1 RES     
   25370 C0        1049.2800 -1175.0304  -770.0588 C0            1 RES     
   25371 C0        1050.6054 -1174.6242  -770.7387 C0            1 RES     
   25372 C0        1051.6449 -1173.8206  -769.9285 C0            1 RES     
   25373 C0        1052.4980 -1174.6743  -768.9680 C0            1 RES     
   25374 C0        1053.6092 -1173.9058  -768.2215 C0            1 RES     
   25375 C0        1054.9308 -1173.6376  -768.9840 C0            1 RES     
   25376 C0        1054.9082 -1172.6720  -770.1788 C0            1 RES     
   25377 C0        1054.3764 -1171.2876  -769.8136 C0            1 RES     
   25378 H6        1045.1786 -1180.6514  -764.9148 H6            1 RES     
   25379 H6        1043.5091 -1181.0840  -765.3843 H6            1 RES     
   25380 H6        1042.8763 -1178.9392  -765.9992 H6            1 RES     
   25381 H6        1044.3451 -1178.1298  -765.4132 H6            1 RES     
   25382 H6        1044.2144 -1180.1022  -767.7750 H6            1 RES     
   25383 H6        1044.1155 -1178.3177  -767.8453 H6            1 RES     
   25384 H6        1046.6366 -1179.8971  -767.0663 H6            1 RES     
   25385 H6        1046.2745 -1178.9235  -768.5310 H6            1 RES     
   25386 H6        1045.9400 -1176.8850  -766.8334 H6            1 RES     
   25387 H6        1046.6930 -1178.0128  -765.6577 H6            1 RES     
   25388 H6        1048.7284 -1178.1676  -767.2010 H6            1 RES     
   25389 H6        1048.4097 -1176.6003  -766.3755 H6            1 RES     
   25390 H6        1047.5953 -1177.1321  -769.2935 H6            1 RES     
   25391 H6        1047.3109 -1175.6367  -768.3221 H6            1 RES     
   25392 H6        1049.7792 -1175.4015  -767.9913 H6            1 RES     
   25393 H6        1050.0417 -1176.8356  -769.0848 H6            1 RES     
   25394 H6        1048.6860 -1175.5435  -770.8471 H6            1 RES     
   25395 H6        1048.7202 -1174.1176  -769.7549 H6            1 RES     
   25396 H6        1051.0982 -1175.5143  -771.1859 H6            1 RES     
   25397 H6        1050.2934 -1173.9678  -771.5820 H6            1 RES     
   25398 H6        1051.1564 -1172.9739  -769.3993 H6            1 RES     
   25399 H6        1052.3153 -1173.3921  -770.6841 H6            1 RES     
   25400 H6        1051.8347 -1175.0649  -768.1835 H6            1 RES     
   25401 H6        1052.9461 -1175.5448  -769.4942 H6            1 RES     
   25402 H6        1053.9150 -1174.5659  -767.3789 H6            1 RES     
   25403 H6        1053.2008 -1172.9797  -767.7646 H6            1 RES     
   25404 H6        1055.6461 -1173.2174  -768.2427 H6            1 RES     
   25405 H6        1055.3482 -1174.6087  -769.3294 H6            1 RES     
   25406 H6        1055.9532 -1172.5576  -770.5415 H6            1 RES     
   25407 H6        1054.3428 -1173.0976  -771.0259 H6            1 RES     
   25408 H6        1054.9876 -1170.8439  -768.9992 H6            1 RES     
   25409 H6        1054.4322 -1170.6243  -770.7022 H6            1 RES     
   25410 H6        1053.3177 -1171.3433  -769.4879 H6            1 RES     
   25411 C0        1045.7950 -1192.4026  -760.7451 C0            1 RES     
   25412 C1        1044.7361 -1191.2807  -760.7225 C1            1 RES     
   25413 C1        1043.3452 -1191.7563  -760.5737 C1            1 RES     
   25414 S2        1042.3360 -1190.6120  -761.5277 S2            1 RES     
   25415 C1        1043.5661 -1189.3968  -761.0040 C1            1 RES     
   25416 C1        1044.8145 -1189.9571  -760.8082 C1            1 RES     
   25417 C1        1043.5293 -1193.1543  -760.9340 C1            1 RES     
   25418 C1        1044.8313 -1193.5578  -761.0022 C1            1 RES     
   25419 C1        1044.9599 -1194.9324  -761.2713 C1            1 RES     
   25420 C1        1043.6967 -1195.5651  -761.3591 C1            1 RES     
   25421 S2        1042.4704 -1194.4173  -761.1073 S2            1 RES     
   25422 H3        1045.7175 -1189.3710  -760.8561 H3            1 RES     
   25423 H3        1045.9086 -1195.4433  -761.3788 H3            1 RES     
   25424 N4        1044.3876 -1197.7474  -762.2686 N4            1 RES     
   25425 C1        1044.1883 -1199.0523  -762.6207 C1            1 RES     
   25426 C1        1042.9773 -1199.6954  -762.3373 C1            1 RES     
   25427 C1        1041.9840 -1198.9748  -761.6862 C1            1 RES     
   25428 N4        1040.7816 -1199.4980  -761.3429 N4            1 RES     
   25429 S2        1040.0399 -1198.2194  -760.6064 S2            1 RES     
   25430 N4        1041.1607 -1197.0094  -760.7019 N4            1 RES     
   25431 C1        1042.1973 -1197.6123  -761.3419 C1            1 RES     
   25432 C1        1043.4296 -1196.9957  -761.6482 C1            1 RES     
   25433 H5        1044.9728 -1199.5958  -763.1313 H5            1 RES     
   25434 C0        1046.4282 -1192.5810  -759.3269 C0            1 RES     
   25435 C0        1047.2459 -1191.3720  -758.8614 C0            1 RES     
   25436 C0        1047.7684 -1191.4217  -757.4223 C0            1 RES     
   25437 C0        1046.6962 -1191.4786  -756.3225 C0            1 RES     
   25438 C0        1045.5568 -1190.4584  -756.5233 C0            1 RES     
   25439 C0        1044.6673 -1190.3341  -755.2803 C0            1 RES     
   25440 C0        1045.3291 -1189.4352  -754.2241 C0            1 RES     
   25441 C0        1044.4886 -1189.3495  -752.9495 C0            1 RES     
   25442 C0        1045.0540 -1188.2810  -752.0087 C0            1 RES     
   25443 C0        1044.5045 -1188.2765  -750.5682 C0            1 RES     
   25444 C0        1042.9849 -1188.1102  -750.3669 C0            1 RES     
   25445 C0        1042.1852 -1189.4178  -750.5622 C0            1 RES     
   25446 C0        1040.6698 -1189.3056  -750.3017 C0            1 RES     
   25447 C0        1040.1934 -1189.3560  -748.8300 C0            1 RES     
   25448 C0        1040.5713 -1188.1953  -747.8979 C0            1 RES     
   25449 C0        1040.1131 -1186.8372  -748.4258 C0            1 RES     
   25450 H6        1045.5977 -1192.7337  -758.6055 H6            1 RES     
   25451 H6        1047.0649 -1193.4920  -759.2995 H6            1 RES     
   25452 H6        1048.1284 -1191.2987  -759.4949 H6            1 RES     
   25453 H6        1046.6550 -1190.4436  -758.9685 H6            1 RES     
   25454 H6        1048.4710 -1192.2730  -757.2909 H6            1 RES     
   25455 H6        1048.3475 -1190.4826  -757.2746 H6            1 RES     
   25456 H6        1046.2459 -1192.4938  -756.2743 H6            1 RES     
   25457 H6        1047.2300 -1191.3051  -755.3654 H6            1 RES     
   25458 H6        1045.9438 -1189.4513  -756.7926 H6            1 RES     
   25459 H6        1044.9327 -1190.8206  -757.3682 H6            1 RES     
   25460 H6        1044.4243 -1191.3449  -754.8840 H6            1 RES     
   25461 H6        1043.7151 -1189.8404  -755.5742 H6            1 RES     
   25462 H6        1046.3376 -1189.8082  -753.9499 H6            1 RES     
   25463 H6        1045.4382 -1188.4190  -754.6660 H6            1 RES     
   25464 H6        1043.4559 -1189.0580  -753.2289 H6            1 RES     
   25465 H6        1044.4974 -1190.3481  -752.4603 H6            1 RES     
   25466 H6        1046.1524 -1188.4295  -751.9122 H6            1 RES     
   25467 H6        1044.8879 -1187.2849  -752.4768 H6            1 RES     
   25468 H6        1044.8445 -1189.1822  -750.0211 H6            1 RES     
   25469 H6        1044.9956 -1187.4021  -750.0853 H6            1 RES     
   25470 H6        1042.5961 -1187.2870  -751.0047 H6            1 RES     
   25471 H6        1042.8738 -1187.7992  -749.3212 H6            1 RES     
   25472 H6        1042.2744 -1189.7236  -751.6139 H6            1 RES     
   25473 H6        1042.6040 -1190.2399  -749.9423 H6            1 RES     
   25474 H6        1040.2175 -1190.2124  -750.7628 H6            1 RES     
   25475 H6        1040.2491 -1188.4325  -750.8437 H6            1 RES     
   25476 H6        1039.0823 -1189.4026  -748.8578 H6            1 RES     
   25477 H6        1040.5515 -1190.3027  -748.3694 H6            1 RES     
   25478 H6        1040.0780 -1188.3731  -746.9179 H6            1 RES     
   25479 H6        1041.6551 -1188.1890  -747.6896 H6            1 RES     
   25480 H6        1039.0132 -1186.8361  -748.5790 H6            1 RES     
   25481 H6        1040.3719 -1186.0483  -747.6889 H6            1 RES     
   25482 H6        1040.6155 -1186.5937  -749.3841 H6            1 RES     
   25483 C0        1046.8552 -1192.3248  -761.9202 C0            1 RES     
   25484 C0        1047.4043 -1190.9108  -762.2315 C0            1 RES     
   25485 C0        1048.5675 -1190.8000  -763.2409 C0            1 RES     
   25486 C0        1049.9877 -1191.1674  -762.7438 C0            1 RES     
   25487 C0        1050.3527 -1190.4682  -761.4177 C0            1 RES     
   25488 C0        1051.8484 -1190.4565  -761.0702 C0            1 RES     
   25489 C0        1052.5969 -1189.3519  -761.8341 C0            1 RES     
   25490 C0        1054.0734 -1189.2757  -761.4180 C0            1 RES     
   25491 C0        1054.7468 -1188.0511  -762.0514 C0            1 RES     
   25492 C0        1056.2861 -1187.9760  -761.9570 C0            1 RES     
   25493 C0        1056.9454 -1187.8843  -760.5643 C0            1 RES     
   25494 C0        1057.0507 -1189.2325  -759.8225 C0            1 RES     
   25495 C0        1057.7951 -1189.1792  -758.4713 C0            1 RES     
   25496 C0        1059.3437 -1189.2003  -758.5055 C0            1 RES     
   25497 C0        1060.0836 -1187.9875  -759.0904 C0            1 RES     
   25498 C0        1059.7230 -1186.6781  -758.3916 C0            1 RES     
   25499 H6        1047.6806 -1193.0328  -761.6899 H6            1 RES     
   25500 H6        1046.3910 -1192.6671  -762.8723 H6            1 RES     
   25501 H6        1046.5605 -1190.3607  -762.6969 H6            1 RES     
   25502 H6        1047.6959 -1190.3546  -761.3306 H6            1 RES     
   25503 H6        1048.3291 -1191.3536  -764.1743 H6            1 RES     
   25504 H6        1048.6254 -1189.7207  -763.5071 H6            1 RES     
   25505 H6        1050.1047 -1192.2654  -762.6164 H6            1 RES     
   25506 H6        1050.6844 -1190.8420  -763.5451 H6            1 RES     
   25507 H6        1049.9831 -1189.4193  -761.3926 H6            1 RES     
   25508 H6        1049.8464 -1191.0365  -760.6262 H6            1 RES     
   25509 H6        1052.2974 -1191.4618  -761.2265 H6            1 RES     
   25510 H6        1051.9348 -1190.2043  -759.9909 H6            1 RES     
   25511 H6        1052.5289 -1189.5177  -762.9297 H6            1 RES     
   25512 H6        1052.1119 -1188.3790  -761.5916 H6            1 RES     
   25513 H6        1054.1136 -1189.1698  -760.3167 H6            1 RES     
   25514 H6        1054.5820 -1190.2103  -761.7377 H6            1 RES     
   25515 H6        1054.5151 -1188.0553  -763.1395 H6            1 RES     
   25516 H6        1054.2997 -1187.1300  -761.6148 H6            1 RES     
   25517 H6        1056.7486 -1188.8104  -762.5270 H6            1 RES     
   25518 H6        1056.5498 -1187.0341  -762.4886 H6            1 RES     
   25519 H6        1056.4389 -1187.1140  -759.9434 H6            1 RES     
   25520 H6        1057.9642 -1187.5282  -760.7621 H6            1 RES     
   25521 H6        1056.0315 -1189.5663  -759.5820 H6            1 RES     
   25522 H6        1057.5166 -1190.0100  -760.4657 H6            1 RES     
   25523 H6        1057.5257 -1190.1219  -757.9441 H6            1 RES     
   25524 H6        1057.4071 -1188.3467  -757.8470 H6            1 RES     
   25525 H6        1059.6837 -1189.3086  -757.4517 H6            1 RES     
   25526 H6        1059.6774 -1190.1087  -759.0533 H6            1 RES     
   25527 H6        1061.1742 -1188.1611  -758.9604 H6            1 RES     
   25528 H6        1059.9215 -1187.9076  -760.1793 H6            1 RES     
   25529 H6        1059.9434 -1186.7492  -757.3053 H6            1 RES     
   25530 H6        1060.3247 -1185.8511  -758.8235 H6            1 RES     
   25531 H6        1058.6497 -1186.4367  -758.5323 H6            1 RES     
   25532 C0        1043.9276 -1204.8640  -763.0286 C0            1 RES     
   25533 C1        1043.2283 -1203.4933  -762.9177 C1            1 RES     
   25534 C1        1041.8733 -1203.4494  -763.5051 C1            1 RES     
   25535 S2        1041.6878 -1201.7895  -764.1745 S2            1 RES     
   25536 C1        1042.7275 -1201.3193  -762.7738 C1            1 RES     
   25537 C1        1043.5940 -1202.3277  -762.3952 C1            1 RES     
   25538 C1        1041.9311 -1204.6452  -764.3326 C1            1 RES     
   25539 C1        1043.0002 -1205.4568  -764.0860 C1            1 RES     
   25540 C1        1042.9715 -1206.6386  -764.8482 C1            1 RES     
   25541 C1        1041.8085 -1206.7104  -765.6519 C1            1 RES     
   25542 S2        1040.8612 -1205.3231  -765.4012 S2            1 RES     
   25543 H3        1044.5044 -1202.1256  -761.8552 H3            1 RES     
   25544 H3        1043.7360 -1207.4045  -764.8089 H3            1 RES     
   25545 N4        1042.4103 -1208.6223  -767.0834 N4            1 RES     
   25546 C1        1042.1539 -1209.5983  -768.0044 C1            1 RES     
   25547 C1        1040.8561 -1209.8077  -768.4862 C1            1 RES     
   25548 C1        1039.8343 -1209.0003  -768.0025 C1            1 RES     
   25549 N4        1038.5385 -1209.1245  -768.3805 N4            1 RES     
   25550 S2        1037.8000 -1207.9413  -767.4960 S2            1 RES     
   25551 N4        1039.0411 -1207.2537  -766.6498 N4            1 RES     
   25552 C1        1040.1175 -1207.9761  -767.0583 C1            1 RES     
   25553 C1        1041.4394 -1207.7913  -766.5990 C1            1 RES     
   25554 H5        1042.9641 -1210.2144  -768.3725 H5            1 RES     
   25555 C0        1043.7572 -1205.6702  -761.7001 C0            1 RES     
   25556 C0        1044.4703 -1205.0381  -760.5007 C0            1 RES     
   25557 C0        1044.2201 -1205.6964  -759.1403 C0            1 RES     
   25558 C0        1042.7649 -1205.6790  -758.6457 C0            1 RES     
   25559 C0        1042.0837 -1204.3029  -758.7925 C0            1 RES     
   25560 C0        1040.7518 -1204.2343  -758.0355 C0            1 RES     
   25561 C0        1040.9886 -1203.9929  -756.5364 C0            1 RES     
   25562 C0        1039.6760 -1203.9857  -755.7518 C0            1 RES     
   25563 C0        1039.9184 -1203.5254  -754.3111 C0            1 RES     
   25564 C0        1038.7600 -1203.7449  -753.3177 C0            1 RES     
   25565 C0        1037.3947 -1203.1025  -753.6347 C0            1 RES     
   25566 C0        1036.5486 -1203.9079  -754.6461 C0            1 RES     
   25567 C0        1035.1480 -1203.3323  -754.9357 C0            1 RES     
   25568 C0        1034.0265 -1203.6361  -753.9133 C0            1 RES     
   25569 C0        1034.1305 -1203.0234  -752.5088 C0            1 RES     
   25570 C0        1034.2548 -1201.5012  -752.5334 C0            1 RES     
   25571 H6        1042.6713 -1205.7144  -761.4714 H6            1 RES     
   25572 H6        1044.1121 -1206.7155  -761.8338 H6            1 RES     
   25573 H6        1045.5432 -1205.1090  -760.6715 H6            1 RES     
   25574 H6        1044.1961 -1203.9709  -760.4087 H6            1 RES     
   25575 H6        1044.5934 -1206.7434  -759.1384 H6            1 RES     
   25576 H6        1044.8283 -1205.1218  -758.4060 H6            1 RES     
   25577 H6        1042.1586 -1206.4254  -759.2034 H6            1 RES     
   25578 H6        1042.7983 -1206.0024  -757.5849 H6            1 RES     
   25579 H6        1042.7399 -1203.4754  -758.4443 H6            1 RES     
   25580 H6        1041.8825 -1204.1462  -759.8739 H6            1 RES     
   25581 H6        1040.1574 -1205.1550  -758.2275 H6            1 RES     
   25582 H6        1040.1728 -1203.3641  -758.4155 H6            1 RES     
   25583 H6        1041.6486 -1204.7713  -756.1006 H6            1 RES     
   25584 H6        1041.4911 -1203.0052  -756.4287 H6            1 RES     
   25585 H6        1038.9818 -1203.2690  -756.2355 H6            1 RES     
   25586 H6        1039.2553 -1205.0149  -755.7699 H6            1 RES     
   25587 H6        1040.7841 -1204.0859  -753.8937 H6            1 RES     
   25588 H6        1040.1939 -1202.4471  -754.3340 H6            1 RES     
   25589 H6        1038.6133 -1204.8300  -753.1274 H6            1 RES     
   25590 H6        1039.1200 -1203.2940  -752.3657 H6            1 RES     
   25591 H6        1037.5268 -1202.0458  -753.9531 H6            1 RES     
   25592 H6        1036.8601 -1203.0951  -752.6773 H6            1 RES     
   25593 H6        1037.0683 -1203.9010  -755.6143 H6            1 RES     
   25594 H6        1036.4508 -1204.9694  -754.3311 H6            1 RES     
   25595 H6        1034.8046 -1203.8323  -755.8692 H6            1 RES     
   25596 H6        1035.2167 -1202.2480  -755.1652 H6            1 RES     
   25597 H6        1033.0792 -1203.2635  -754.3616 H6            1 RES     
   25598 H6        1033.9287 -1204.7386  -753.8053 H6            1 RES     
   25599 H6        1033.2048 -1203.2889  -751.9537 H6            1 RES     
   25600 H6        1034.9604 -1203.4748  -751.9382 H6            1 RES     
   25601 H6        1033.3862 -1201.0536  -753.0611 H6            1 RES     
   25602 H6        1034.2777 -1201.1159  -751.4925 H6            1 RES     
   25603 H6        1035.1906 -1201.1875  -753.0391 H6            1 RES     
   25604 C0        1045.4126 -1204.8364  -763.5809 C0            1 RES     
   25605 C0        1046.3069 -1203.6964  -763.0348 C0            1 RES     
   25606 C0        1047.8074 -1203.7260  -763.3982 C0            1 RES     
   25607 C0        1048.7145 -1204.7153  -762.6253 C0            1 RES     
   25608 C0        1048.5293 -1204.6215  -761.0964 C0            1 RES     
   25609 C0        1049.6464 -1205.2594  -760.2581 C0            1 RES     
   25610 C0        1050.8677 -1204.3322  -760.1457 C0            1 RES     
   25611 C0        1051.9482 -1204.9264  -759.2301 C0            1 RES     
   25612 C0        1053.0661 -1203.9042  -758.9860 C0            1 RES     
   25613 C0        1054.3539 -1204.4277  -758.3140 C0            1 RES     
   25614 C0        1054.2707 -1204.9974  -756.8818 C0            1 RES     
   25615 C0        1053.7438 -1206.4450  -756.8048 C0            1 RES     
   25616 C0        1053.7456 -1207.0675  -755.3923 C0            1 RES     
   25617 C0        1055.0843 -1207.6414  -754.8645 C0            1 RES     
   25618 C0        1056.2337 -1206.6681  -754.5609 C0            1 RES     
   25619 C0        1055.8456 -1205.5857  -753.5556 C0            1 RES     
   25620 H6        1045.8716 -1205.8308  -763.3912 H6            1 RES     
   25621 H6        1045.4035 -1204.6890  -764.6842 H6            1 RES     
   25622 H6        1045.9138 -1202.7655  -763.4932 H6            1 RES     
   25623 H6        1046.2343 -1203.5768  -761.9456 H6            1 RES     
   25624 H6        1047.9417 -1203.8531  -764.4938 H6            1 RES     
   25625 H6        1048.1943 -1202.7155  -763.1370 H6            1 RES     
   25626 H6        1048.5402 -1205.7653  -762.9458 H6            1 RES     
   25627 H6        1049.7577 -1204.4464  -762.8954 H6            1 RES     
   25628 H6        1048.4049 -1203.5675  -760.7631 H6            1 RES     
   25629 H6        1047.6066 -1205.1715  -760.8688 H6            1 RES     
   25630 H6        1049.9100 -1206.2652  -760.6525 H6            1 RES     
   25631 H6        1049.2535 -1205.3860  -759.2258 H6            1 RES     
   25632 H6        1051.3010 -1204.1312  -761.1479 H6            1 RES     
   25633 H6        1050.5258 -1203.3673  -759.7069 H6            1 RES     
   25634 H6        1051.4767 -1205.1718  -758.2589 H6            1 RES     
   25635 H6        1052.3548 -1205.8435  -759.7078 H6            1 RES     
   25636 H6        1053.3870 -1203.5030  -759.9727 H6            1 RES     
   25637 H6        1052.6538 -1203.0560  -758.3948 H6            1 RES     
   25638 H6        1054.8602 -1205.1656  -758.9729 H6            1 RES     
   25639 H6        1055.0173 -1203.5355  -758.2558 H6            1 RES     
   25640 H6        1053.6899 -1204.3149  -756.2241 H6            1 RES     
   25641 H6        1055.3071 -1204.9965  -756.5217 H6            1 RES     
   25642 H6        1052.6909 -1206.4385  -757.1202 H6            1 RES     
   25643 H6        1054.2990 -1207.1123  -757.4988 H6            1 RES     
   25644 H6        1053.0794 -1207.9569  -755.4565 H6            1 RES     
   25645 H6        1053.2770 -1206.3742  -754.6621 H6            1 RES     
   25646 H6        1054.8506 -1208.1713  -753.9146 H6            1 RES     
   25647 H6        1055.4551 -1208.4041  -755.5836 H6            1 RES     
   25648 H6        1057.0718 -1207.2579  -754.1294 H6            1 RES     
   25649 H6        1056.6310 -1206.2178  -755.4871 H6            1 RES     
   25650 H6        1055.5012 -1206.0488  -752.6065 H6            1 RES     
   25651 H6        1056.7284 -1204.9478  -753.3405 H6            1 RES     
   25652 H6        1055.0406 -1204.9393  -753.9607 H6            1 RES     
   25653 C0        1040.9944 -1214.5161  -770.9168 C0            1 RES     
   25654 C1        1040.6092 -1213.0827  -770.4954 C1            1 RES     
   25655 C1        1039.7381 -1212.3764  -771.4572 C1            1 RES     
   25656 S2        1040.2224 -1210.6455  -771.3706 S2            1 RES     
   25657 C1        1040.5346 -1211.0223  -769.6314 C1            1 RES     
   25658 C1        1040.8995 -1212.3406  -769.4322 C1            1 RES     
   25659 C1        1039.9504 -1213.2100  -772.6311 C1            1 RES     
   25660 C1        1040.5902 -1214.3898  -772.3831 C1            1 RES     
   25661 C1        1040.7000 -1215.1986  -773.5286 C1            1 RES     
   25662 C1        1040.0741 -1214.6008  -774.6487 C1            1 RES     
   25663 S2        1039.4131 -1213.1036  -774.1951 S2            1 RES     
   25664 H3        1041.4604 -1212.6535  -768.5668 H3            1 RES     
   25665 H3        1041.1869 -1216.1657  -773.5439 H3            1 RES     
   25666 N4        1040.9018 -1216.0876  -776.4295 N4            1 RES     
   25667 C1        1040.9326 -1216.5850  -777.7016 C1            1 RES     
   25668 C1        1040.0106 -1216.1542  -778.6633 C1            1 RES     
   25669 C1        1039.0614 -1215.2105  -778.2914 C1            1 RES     
   25670 N4        1038.1081 -1214.7359  -779.1301 N4            1 RES     
   25671 S2        1037.2831 -1213.6817  -778.1629 S2            1 RES     
   25672 N4        1038.0753 -1213.7766  -776.7163 N4            1 RES     
   25673 C1        1039.0519 -1214.6874  -776.9697 C1            1 RES     
   25674 C1        1040.0005 -1215.1419  -776.0284 C1            1 RES     
   25675 H5        1041.6825 -1217.3165  -777.9734 H5            1 RES     
   25676 C0        1040.0563 -1215.5570  -770.2237 C0            1 RES     
   25677 C0        1040.2167 -1215.6121  -768.7011 C0            1 RES     
   25678 C0        1039.2238 -1216.5027  -767.9477 C0            1 RES     
   25679 C0        1037.7445 -1216.1017  -768.0620 C0            1 RES     
   25680 C0        1037.4990 -1214.5944  -767.8449 C0            1 RES     
   25681 C0        1036.0098 -1214.2705  -767.6753 C0            1 RES     
   25682 C0        1035.5429 -1214.5851  -766.2454 C0            1 RES     
   25683 C0        1034.0450 -1214.3305  -766.0721 C0            1 RES     
   25684 C0        1033.6534 -1214.4366  -764.5950 C0            1 RES     
   25685 C0        1032.1436 -1214.5000  -764.2894 C0            1 RES     
   25686 C0        1031.2509 -1213.3409  -764.7759 C0            1 RES     
   25687 C0        1030.8530 -1213.4456  -766.2653 C0            1 RES     
   25688 C0        1029.9039 -1212.3406  -766.7704 C0            1 RES     
   25689 C0        1028.3954 -1212.5006  -766.4633 C0            1 RES     
   25690 C0        1027.9323 -1212.4108  -765.0017 C0            1 RES     
   25691 C0        1028.3468 -1211.1046  -764.3272 C0            1 RES     
   25692 H6        1039.0083 -1215.2668  -770.4496 H6            1 RES     
   25693 H6        1040.2207 -1216.5704  -770.6507 H6            1 RES     
   25694 H6        1041.2035 -1216.0162  -768.4812 H6            1 RES     
   25695 H6        1040.1456 -1214.5966  -768.2698 H6            1 RES     
   25696 H6        1039.3388 -1217.5643  -768.2566 H6            1 RES     
   25697 H6        1039.5056 -1216.4335  -766.8729 H6            1 RES     
   25698 H6        1037.3466 -1216.3754  -769.0633 H6            1 RES     
   25699 H6        1037.2030 -1216.7118  -767.3100 H6            1 RES     
   25700 H6        1038.0557 -1214.2056  -766.9642 H6            1 RES     
   25701 H6        1037.8743 -1214.0642  -768.7464 H6            1 RES     
   25702 H6        1035.4132 -1214.8101  -768.4440 H6            1 RES     
   25703 H6        1035.8650 -1213.1787  -767.8298 H6            1 RES     
   25704 H6        1035.7483 -1215.6418  -765.9760 H6            1 RES     
   25705 H6        1036.1140 -1213.9279  -765.5514 H6            1 RES     
   25706 H6        1033.8212 -1213.3017  -766.4199 H6            1 RES     
   25707 H6        1033.4930 -1215.0805  -766.6797 H6            1 RES     
   25708 H6        1034.0862 -1215.3706  -764.1729 H6            1 RES     
   25709 H6        1034.1102 -1213.5780  -764.0534 H6            1 RES     
   25710 H6        1031.7158 -1215.4609  -764.6484 H6            1 RES     
   25711 H6        1032.0845 -1214.5135  -763.1779 H6            1 RES     
   25712 H6        1031.7219 -1212.3621  -764.5403 H6            1 RES     
   25713 H6        1030.3367 -1213.4211  -764.1756 H6            1 RES     
   25714 H6        1031.7623 -1213.3442  -766.8738 H6            1 RES     
   25715 H6        1030.4120 -1214.4402  -766.4932 H6            1 RES     
   25716 H6        1029.9588 -1212.3820  -767.8816 H6            1 RES     
   25717 H6        1030.2835 -1211.3405  -766.4726 H6            1 RES     
   25718 H6        1027.8709 -1211.6936  -767.0211 H6            1 RES     
   25719 H6        1028.0455 -1213.4704  -766.8801 H6            1 RES     
   25720 H6        1026.8224 -1212.4708  -764.9935 H6            1 RES     
   25721 H6        1028.2824 -1213.2805  -764.4193 H6            1 RES     
   25722 H6        1027.9423 -1210.2368  -764.8899 H6            1 RES     
   25723 H6        1027.9437 -1211.0791  -763.2931 H6            1 RES     
   25724 H6        1029.4511 -1211.0203  -764.2703 H6            1 RES     
   25725 C0        1042.5356 -1214.8712  -770.8201 C0            1 RES     
   25726 C0        1043.2624 -1214.3516  -769.5554 C0            1 RES     
   25727 C0        1044.7155 -1214.8185  -769.3212 C0            1 RES     
   25728 C0        1044.9303 -1216.2510  -768.7727 C0            1 RES     
   25729 C0        1044.0590 -1216.5506  -767.5351 C0            1 RES     
   25730 C0        1044.4908 -1217.7687  -766.7059 C0            1 RES     
   25731 C0        1045.6636 -1217.4287  -765.7715 C0            1 RES     
   25732 C0        1046.0355 -1218.6175  -764.8731 C0            1 RES     
   25733 C0        1047.0753 -1218.1947  -763.8269 C0            1 RES     
   25734 C0        1047.7551 -1219.3250  -763.0242 C0            1 RES     
   25735 C0        1046.8882 -1220.2194  -762.1126 C0            1 RES     
   25736 C0        1046.1183 -1221.3282  -762.8588 C0            1 RES     
   25737 C0        1045.3234 -1222.2945  -761.9548 C0            1 RES     
   25738 C0        1046.1059 -1223.4455  -761.2744 C0            1 RES     
   25739 C0        1047.1347 -1223.0949  -760.1885 C0            1 RES     
   25740 C0        1046.5323 -1222.2932  -759.0364 C0            1 RES     
   25741 H6        1042.6445 -1215.9728  -770.9199 H6            1 RES     
   25742 H6        1043.0841 -1214.4129  -771.6735 H6            1 RES     
   25743 H6        1043.3261 -1213.2509  -769.6810 H6            1 RES     
   25744 H6        1042.7027 -1214.5401  -768.6296 H6            1 RES     
   25745 H6        1045.3296 -1214.6572  -770.2330 H6            1 RES     
   25746 H6        1045.1186 -1214.1442  -768.5326 H6            1 RES     
   25747 H6        1044.7298 -1217.0203  -769.5495 H6            1 RES     
   25748 H6        1046.0052 -1216.3148  -768.5007 H6            1 RES     
   25749 H6        1043.9982 -1215.6725  -766.8549 H6            1 RES     
   25750 H6        1043.0528 -1216.7666  -767.9181 H6            1 RES     
   25751 H6        1044.7093 -1218.6371  -767.3652 H6            1 RES     
   25752 H6        1043.6362 -1218.0410  -766.0490 H6            1 RES     
   25753 H6        1046.5529 -1217.1143  -766.3570 H6            1 RES     
   25754 H6        1045.3488 -1216.5808  -765.1215 H6            1 RES     
   25755 H6        1045.1197 -1218.9480  -764.3462 H6            1 RES     
   25756 H6        1046.4336 -1219.4352  -765.5113 H6            1 RES     
   25757 H6        1047.8999 -1217.6670  -764.3551 H6            1 RES     
   25758 H6        1046.6046 -1217.4691  -763.1263 H6            1 RES     
   25759 H6        1048.3601 -1219.9676  -763.6996 H6            1 RES     
   25760 H6        1048.4691 -1218.7964  -762.3533 H6            1 RES     
   25761 H6        1046.2092 -1219.5982  -761.4891 H6            1 RES     
   25762 H6        1047.6039 -1220.7030  -761.4360 H6            1 RES     
   25763 H6        1045.3686 -1220.8453  -763.5013 H6            1 RES     
   25764 H6        1046.7957 -1221.9160  -763.5152 H6            1 RES     
   25765 H6        1044.6104 -1222.8180  -762.6307 H6            1 RES     
   25766 H6        1044.7079 -1221.7262  -761.2258 H6            1 RES     
   25767 H6        1045.3484 -1224.1079  -760.7998 H6            1 RES     
   25768 H6        1046.6188 -1224.0428  -762.0596 H6            1 RES     
   25769 H6        1047.5313 -1224.0488  -759.7772 H6            1 RES     
   25770 H6        1048.0053 -1222.5695  -760.6177 H6            1 RES     
   25771 H6        1045.6935 -1222.8559  -758.5743 H6            1 RES     
   25772 H6        1047.3097 -1222.1154  -758.2640 H6            1 RES     
   25773 H6        1046.1623 -1221.3091  -759.3896 H6            1 RES     
   25774 C0        1040.3747 -1219.6476  -782.6331 C0            1 RES     
   25775 C1        1040.1222 -1218.3652  -781.8134 C1            1 RES     
   25776 C1        1039.9735 -1217.1401  -782.6258 C1            1 RES     
   25777 S2        1040.6838 -1215.8137  -781.6389 S2            1 RES     
   25778 C1        1040.0464 -1216.7725  -780.2465 C1            1 RES     
   25779 C1        1040.0071 -1218.1287  -780.5110 C1            1 RES     
   25780 C1        1040.5543 -1217.6083  -783.8754 C1            1 RES     
   25781 C1        1040.7541 -1218.9568  -783.9401 C1            1 RES     
   25782 C1        1041.2384 -1219.3740  -785.1930 C1            1 RES     
   25783 C1        1041.3542 -1218.2878  -786.0933 C1            1 RES     
   25784 S2        1040.8626 -1216.8577  -785.3203 S2            1 RES     
   25785 H3        1040.0128 -1218.8645  -779.7237 H3            1 RES     
   25786 H3        1041.4744 -1220.4015  -785.4407 H3            1 RES     
   25787 N4        1042.6250 -1219.3789  -787.8992 N4            1 RES     
   25788 C1        1043.1627 -1219.4549  -789.1529 C1            1 RES     
   25789 C1        1042.9167 -1218.4547  -790.1013 C1            1 RES     
   25790 C1        1042.1096 -1217.3842  -789.7373 C1            1 RES     
   25791 N4        1041.7865 -1216.3701  -790.5768 N4            1 RES     
   25792 S2        1040.8227 -1215.4226  -789.6276 S2            1 RES     
   25793 N4        1040.7912 -1216.2215  -788.1819 N4            1 RES     
   25794 C1        1041.5715 -1217.3078  -788.4239 C1            1 RES     
   25795 C1        1041.8454 -1218.3327  -787.4927 C1            1 RES     
   25796 H5        1043.7926 -1220.2947  -789.4163 H5            1 RES     
   25797 C0        1039.0372 -1220.4286  -782.8461 C0            1 RES     
   25798 C0        1038.4359 -1220.9840  -781.5512 C0            1 RES     
   25799 C0        1037.0520 -1221.6300  -781.6700 C0            1 RES     
   25800 C0        1035.9177 -1220.7021  -782.1334 C0            1 RES     
   25801 C0        1035.8971 -1219.3452  -781.4002 C0            1 RES     
   25802 C0        1034.6035 -1218.5653  -781.6652 C0            1 RES     
   25803 C0        1033.4588 -1219.0937  -780.7865 C0            1 RES     
   25804 C0        1032.1426 -1218.3730  -781.0811 C0            1 RES     
   25805 C0        1031.0804 -1218.7586  -780.0470 C0            1 RES     
   25806 C0        1029.6288 -1218.3534  -780.3722 C0            1 RES     
   25807 C0        1029.3225 -1216.8606  -780.6060 C0            1 RES     
   25808 C0        1029.6733 -1216.3693  -782.0283 C0            1 RES     
   25809 C0        1029.3171 -1214.8982  -782.3212 C0            1 RES     
   25810 C0        1027.8472 -1214.5792  -782.6858 C0            1 RES     
   25811 C0        1026.7692 -1214.7611  -781.6071 C0            1 RES     
   25812 C0        1027.0560 -1213.9574  -780.3403 C0            1 RES     
   25813 H6        1038.3041 -1219.7232  -783.2916 H6            1 RES     
   25814 H6        1039.1849 -1221.2579  -783.5718 H6            1 RES     
   25815 H6        1039.0973 -1221.7659  -781.1814 H6            1 RES     
   25816 H6        1038.3665 -1220.1882  -780.7868 H6            1 RES     
   25817 H6        1037.0915 -1222.5186  -782.3366 H6            1 RES     
   25818 H6        1036.7929 -1221.9881  -780.6483 H6            1 RES     
   25819 H6        1036.0023 -1220.5038  -783.2240 H6            1 RES     
   25820 H6        1034.9756 -1221.2646  -781.9691 H6            1 RES     
   25821 H6        1036.0285 -1219.4643  -780.3024 H6            1 RES     
   25822 H6        1036.7527 -1218.7485  -781.7830 H6            1 RES     
   25823 H6        1034.3551 -1218.5979  -782.7491 H6            1 RES     
   25824 H6        1034.7659 -1217.5027  -781.3799 H6            1 RES     
   25825 H6        1033.3002 -1220.1813  -780.9395 H6            1 RES     
   25826 H6        1033.7441 -1218.9260  -779.7234 H6            1 RES     
   25827 H6        1032.3175 -1217.2803  -781.0116 H6            1 RES     
   25828 H6        1031.8143 -1218.6551  -782.1054 H6            1 RES     
   25829 H6        1031.0674 -1219.8658  -779.9382 H6            1 RES     
   25830 H6        1031.3797 -1218.3266  -779.0658 H6            1 RES     
   25831 H6        1029.2470 -1218.9402  -781.2354 H6            1 RES     
   25832 H6        1029.0442 -1218.6710  -779.4797 H6            1 RES     
   25833 H6        1029.8038 -1216.2374  -779.8214 H6            1 RES     
   25834 H6        1028.2369 -1216.7744  -780.4770 H6            1 RES     
   25835 H6        1030.7628 -1216.4325  -782.1568 H6            1 RES     
   25836 H6        1029.2110 -1217.0196  -782.8022 H6            1 RES     
   25837 H6        1029.8873 -1214.6277  -783.2384 H6            1 RES     
   25838 H6        1029.6945 -1214.2411  -781.5095 H6            1 RES     
   25839 H6        1027.8217 -1213.5108  -782.9945 H6            1 RES     
   25840 H6        1027.5579 -1215.1852  -783.5722 H6            1 RES     
   25841 H6        1025.8030 -1214.4113  -782.0309 H6            1 RES     
   25842 H6        1026.6213 -1215.8285  -781.3685 H6            1 RES     
   25843 H6        1027.1475 -1212.8776  -780.5833 H6            1 RES     
   25844 H6        1026.2213 -1214.0921  -779.6208 H6            1 RES     
   25845 H6        1027.9910 -1214.3028  -779.8542 H6            1 RES     
   25846 C0        1041.5793 -1220.5524  -782.1422 C0            1 RES     
   25847 C0        1041.6982 -1220.7312  -780.6087 C0            1 RES     
   25848 C0        1042.7399 -1221.7430  -780.0838 C0            1 RES     
   25849 C0        1042.3829 -1223.2480  -780.1627 C0            1 RES     
   25850 C0        1040.9866 -1223.5589  -779.5844 C0            1 RES     
   25851 C0        1040.7228 -1225.0365  -779.2604 C0            1 RES     
   25852 C0        1041.3468 -1225.4395  -777.9142 C0            1 RES     
   25853 C0        1041.0044 -1226.8897  -777.5422 C0            1 RES     
   25854 C0        1041.4771 -1227.2038  -776.1167 C0            1 RES     
   25855 C0        1041.4555 -1228.6866  -775.6866 C0            1 RES     
   25856 C0        1040.1031 -1229.4285  -775.6302 C0            1 RES     
   25857 C0        1039.5846 -1229.9070  -777.0018 C0            1 RES     
   25858 C0        1038.2836 -1230.7365  -776.9562 C0            1 RES     
   25859 C0        1038.4044 -1232.2390  -776.5987 C0            1 RES     
   25860 C0        1038.8346 -1232.6246  -775.1750 C0            1 RES     
   25861 C0        1037.9239 -1232.0358  -774.0995 C0            1 RES     
   25862 H6        1041.5058 -1221.5358  -782.6551 H6            1 RES     
   25863 H6        1042.5462 -1220.0966  -782.4526 H6            1 RES     
   25864 H6        1042.0271 -1219.7453  -780.2197 H6            1 RES     
   25865 H6        1040.7396 -1220.9659  -780.1272 H6            1 RES     
   25866 H6        1043.7332 -1221.5563  -780.5454 H6            1 RES     
   25867 H6        1042.8395 -1221.5268  -778.9964 H6            1 RES     
   25868 H6        1042.4327 -1223.6257  -781.2069 H6            1 RES     
   25869 H6        1043.1610 -1223.7769  -779.5726 H6            1 RES     
   25870 H6        1040.7803 -1222.9614  -778.6691 H6            1 RES     
   25871 H6        1040.2659 -1223.2696  -780.3607 H6            1 RES     
   25872 H6        1041.0562 -1225.6892  -780.0968 H6            1 RES     
   25873 H6        1039.6239 -1225.1583  -779.1450 H6            1 RES     
   25874 H6        1042.4496 -1225.3141  -777.9399 H6            1 RES     
   25875 H6        1040.9314 -1224.7670  -777.1294 H6            1 RES     
   25876 H6        1039.9037 -1227.0024  -777.5815 H6            1 RES     
   25877 H6        1041.4913 -1227.5694  -778.2739 H6            1 RES     
   25878 H6        1042.5386 -1226.8834  -776.0276 H6            1 RES     
   25879 H6        1040.8802 -1226.5974  -775.3991 H6            1 RES     
   25880 H6        1042.1715 -1229.2762  -776.2989 H6            1 RES     
   25881 H6        1041.8492 -1228.6779  -774.6453 H6            1 RES     
   25882 H6        1039.3444 -1228.8155  -775.0970 H6            1 RES     
   25883 H6        1040.2984 -1230.3161  -775.0155 H6            1 RES     
   25884 H6        1039.3437 -1229.0177  -777.6010 H6            1 RES     
   25885 H6        1040.3642 -1230.4802  -777.5486 H6            1 RES     
   25886 H6        1037.8941 -1230.7395  -777.9990 H6            1 RES     
   25887 H6        1037.5185 -1230.2244  -776.3351 H6            1 RES     
   25888 H6        1037.3998 -1232.6872  -776.7650 H6            1 RES     
   25889 H6        1039.1028 -1232.7226  -777.3161 H6            1 RES     
   25890 H6        1038.7920 -1233.7330  -775.0969 H6            1 RES     
   25891 H6        1039.8877 -1232.3520  -774.9883 H6            1 RES     
   25892 H6        1036.8750 -1232.3626  -774.2633 H6            1 RES     
   25893 H6        1038.2551 -1232.3900  -773.1007 H6            1 RES     
   25894 H6        1037.9674 -1230.9276  -774.1068 H6            1 RES     
   25895 C0        1044.4465 -1220.5043  -794.7441 C0            1 RES     
   25896 C1        1044.0880 -1219.5208  -793.6107 C1            1 RES     
   25897 C1        1044.5874 -1218.1453  -793.8145 C1            1 RES     
   25898 S2        1044.9821 -1217.5237  -792.1727 S2            1 RES     
   25899 C1        1043.5840 -1218.5477  -791.6622 C1            1 RES     
   25900 C1        1043.4127 -1219.6533  -792.4741 C1            1 RES     
   25901 C1        1045.5912 -1218.4030  -794.8364 C1            1 RES     
   25902 C1        1045.5308 -1219.6479  -795.3924 C1            1 RES     
   25903 C1        1046.4633 -1219.8243  -796.4305 C1            1 RES     
   25904 C1        1047.2044 -1218.6422  -796.6697 C1            1 RES     
   25905 S2        1046.6921 -1217.4272  -795.5992 S2            1 RES     
   25906 H3        1042.8980 -1220.5371  -792.1345 H3            1 RES     
   25907 H3        1046.5839 -1220.7450  -796.9876 H3            1 RES     
   25908 N4        1048.9438 -1219.5381  -798.1658 N4            1 RES     
   25909 C1        1049.9889 -1219.4324  -799.0394 C1            1 RES     
   25910 C1        1050.4264 -1218.1801  -799.4873 C1            1 RES     
   25911 C1        1049.7694 -1217.0471  -799.0239 C1            1 RES     
   25912 N4        1050.0914 -1215.7863  -799.4037 N4            1 RES     
   25913 S2        1048.9966 -1214.8770  -798.5657 S2            1 RES     
   25914 N4        1048.1230 -1215.9967  -797.7218 N4            1 RES     
   25915 C1        1048.6955 -1217.1698  -798.1008 C1            1 RES     
   25916 C1        1048.2854 -1218.4491  -797.6676 C1            1 RES     
   25917 H5        1050.4908 -1220.3266  -799.3859 H5            1 RES     
   25918 C0        1043.2508 -1220.6431  -795.7416 C0            1 RES     
   25919 C0        1042.0086 -1221.2954  -795.1265 C0            1 RES     
   25920 C0        1040.7543 -1221.3257  -796.0055 C0            1 RES     
   25921 C0        1040.1851 -1219.9556  -796.4070 C0            1 RES     
   25922 C0        1040.0810 -1218.9655  -795.2288 C0            1 RES     
   25923 C0        1039.2516 -1217.7265  -795.5874 C0            1 RES     
   25924 C0        1037.7482 -1218.0339  -795.5036 C0            1 RES     
   25925 C0        1036.9021 -1216.8302  -795.9202 C0            1 RES     
   25926 C0        1035.4228 -1217.0874  -795.6167 C0            1 RES     
   25927 C0        1034.4139 -1216.1039  -796.2426 C0            1 RES     
   25928 C0        1034.5539 -1214.6047  -795.9109 C0            1 RES     
   25929 C0        1035.6301 -1213.8802  -796.7502 C0            1 RES     
   25930 C0        1035.7514 -1212.3646  -796.4949 C0            1 RES     
   25931 C0        1034.7288 -1211.4389  -797.1970 C0            1 RES     
   25932 C0        1033.2544 -1211.5236  -796.7754 C0            1 RES     
   25933 C0        1033.0509 -1211.2914  -795.2795 C0            1 RES     
   25934 H6        1042.9732 -1219.6213  -796.0769 H6            1 RES     
   25935 H6        1043.5628 -1221.2158  -796.6421 H6            1 RES     
   25936 H6        1042.2460 -1222.3362  -794.9128 H6            1 RES     
   25937 H6        1041.7386 -1220.7921  -794.1798 H6            1 RES     
   25938 H6        1040.9339 -1221.9287  -796.9219 H6            1 RES     
   25939 H6        1039.9743 -1221.8482  -795.4074 H6            1 RES     
   25940 H6        1040.8175 -1219.4903  -797.1940 H6            1 RES     
   25941 H6        1039.1901 -1220.1569  -796.8549 H6            1 RES     
   25942 H6        1039.6455 -1219.4419  -794.3233 H6            1 RES     
   25943 H6        1041.1129 -1218.6382  -794.9788 H6            1 RES     
   25944 H6        1039.5507 -1217.3454  -796.5890 H6            1 RES     
   25945 H6        1039.4611 -1216.9312  -794.8388 H6            1 RES     
   25946 H6        1037.4738 -1218.8916  -796.1521 H6            1 RES     
   25947 H6        1037.5169 -1218.3030  -794.4482 H6            1 RES     
   25948 H6        1037.2313 -1215.9494  -795.3326 H6            1 RES     
   25949 H6        1037.0557 -1216.6579  -797.0080 H6            1 RES     
   25950 H6        1035.1442 -1218.0926  -796.0038 H6            1 RES     
   25951 H6        1035.2942 -1217.1040  -794.5111 H6            1 RES     
   25952 H6        1034.3855 -1216.2286  -797.3466 H6            1 RES     
   25953 H6        1033.4248 -1216.4337  -795.8530 H6            1 RES     
   25954 H6        1034.7124 -1214.4610  -794.8201 H6            1 RES     
   25955 H6        1033.5793 -1214.1702  -796.1636 H6            1 RES     
   25956 H6        1036.6123 -1214.2959  -796.4859 H6            1 RES     
   25957 H6        1035.4775 -1214.0579  -797.8368 H6            1 RES     
   25958 H6        1036.7308 -1212.0638  -796.9303 H6            1 RES     
   25959 H6        1035.8144 -1212.1610  -795.4051 H6            1 RES     
   25960 H6        1035.0625 -1210.3951  -797.0058 H6            1 RES     
   25961 H6        1034.7869 -1211.6076  -798.2946 H6            1 RES     
   25962 H6        1032.6977 -1210.7372  -797.3294 H6            1 RES     
   25963 H6        1032.8059 -1212.4826  -797.0873 H6            1 RES     
   25964 H6        1033.4556 -1210.2996  -794.9864 H6            1 RES     
   25965 H6        1031.9658 -1211.3175  -795.0461 H6            1 RES     
   25966 H6        1033.5521 -1212.0809  -794.6834 H6            1 RES     
   25967 C0        1045.0674 -1221.8877  -794.2842 C0            1 RES     
   25968 C0        1044.4012 -1222.5405  -793.0481 C0            1 RES     
   25969 C0        1044.8455 -1223.9689  -792.6654 C0            1 RES     
   25970 C0        1044.2845 -1225.1446  -793.5032 C0            1 RES     
   25971 C0        1042.7517 -1225.0797  -793.6668 C0            1 RES     
   25972 C0        1042.0832 -1226.3838  -794.1254 C0            1 RES     
   25973 C0        1041.8956 -1227.3638  -792.9557 C0            1 RES     
   25974 C0        1041.1422 -1228.6292  -793.3916 C0            1 RES     
   25975 C0        1040.8043 -1229.4989  -792.1735 C0            1 RES     
   25976 C0        1040.2917 -1230.9272  -792.4582 C0            1 RES     
   25977 C0        1038.9620 -1231.1053  -793.2216 C0            1 RES     
   25978 C0        1039.0805 -1230.9349  -794.7500 C0            1 RES     
   25979 C0        1037.7829 -1231.2059  -795.5410 C0            1 RES     
   25980 C0        1037.4230 -1232.6823  -795.8422 C0            1 RES     
   25981 C0        1037.0358 -1233.5991  -794.6716 C0            1 RES     
   25982 C0        1035.8562 -1233.0632  -793.8627 C0            1 RES     
   25983 H6        1045.0582 -1222.5784  -795.1551 H6            1 RES     
   25984 H6        1046.1327 -1221.7467  -793.9938 H6            1 RES     
   25985 H6        1044.6888 -1221.9043  -792.1856 H6            1 RES     
   25986 H6        1043.3043 -1222.5395  -793.0998 H6            1 RES     
   25987 H6        1045.9533 -1224.0307  -792.6052 H6            1 RES     
   25988 H6        1044.4530 -1224.1344  -791.6370 H6            1 RES     
   25989 H6        1044.7530 -1225.1889  -794.5102 H6            1 RES     
   25990 H6        1044.5659 -1226.0695  -792.9565 H6            1 RES     
   25991 H6        1042.2536 -1224.7461  -792.7298 H6            1 RES     
   25992 H6        1042.5619 -1224.3325  -794.4488 H6            1 RES     
   25993 H6        1042.6416 -1226.8357  -794.9744 H6            1 RES     
   25994 H6        1041.0631 -1226.1242  -794.4830 H6            1 RES     
   25995 H6        1042.8768 -1227.6481  -792.5210 H6            1 RES     
   25996 H6        1041.2955 -1226.8493  -792.1709 H6            1 RES     
   25997 H6        1040.1964 -1228.3154  -793.8739 H6            1 RES     
   25998 H6        1041.7768 -1229.1918  -794.1094 H6            1 RES     
   25999 H6        1041.7333 -1229.6296  -791.5757 H6            1 RES     
   26000 H6        1040.0681 -1228.9566  -791.5388 H6            1 RES     
   26001 H6        1041.0828 -1231.5291  -792.9551 H6            1 RES     
   26002 H6        1040.1327 -1231.3698  -791.4491 H6            1 RES     
   26003 H6        1038.1766 -1230.4440  -792.7958 H6            1 RES     
   26004 H6        1038.6626 -1232.1416  -793.0204 H6            1 RES     
   26005 H6        1039.3337 -1229.8851  -794.9543 H6            1 RES     
   26006 H6        1039.8981 -1231.5648  -795.1625 H6            1 RES     
   26007 H6        1037.9474 -1230.7594  -796.5473 H6            1 RES     
   26008 H6        1036.9304 -1230.6572  -795.0878 H6            1 RES     
   26009 H6        1036.5549 -1232.6625  -796.5377 H6            1 RES     
   26010 H6        1038.2701 -1233.1532  -796.3873 H6            1 RES     
   26011 H6        1036.7462 -1234.5854  -795.0955 H6            1 RES     
   26012 H6        1037.9016 -1233.7978  -794.0165 H6            1 RES     
   26013 H6        1034.9726 -1232.9207  -794.5205 H6            1 RES     
   26014 H6        1035.5934 -1233.7910  -793.0665 H6            1 RES     
   26015 H6        1036.1127 -1232.0982  -793.3801 H6            1 RES     
   26016 C0        1053.5572 -1219.1819  -803.6454 C0            1 RES     
   26017 C1        1052.8998 -1218.5160  -802.4187 C1            1 RES     
   26018 C1        1053.6927 -1217.4236  -801.8182 C1            1 RES     
   26019 S2        1053.3668 -1217.5020  -800.0503 S2            1 RES     
   26020 C1        1051.7260 -1218.0463  -800.5751 C1            1 RES     
   26021 C1        1051.7523 -1218.7212  -801.7811 C1            1 RES     
   26022 C1        1054.9908 -1217.7167  -802.4074 C1            1 RES     
   26023 C1        1054.9626 -1218.6305  -803.4208 C1            1 RES     
   26024 C1        1056.2232 -1218.8211  -804.0147 C1            1 RES     
   26025 C1        1057.2024 -1217.9772  -803.4379 C1            1 RES     
   26026 S2        1056.4884 -1217.0322  -802.2206 S2            1 RES     
   26027 H3        1050.9770 -1219.4138  -802.0651 H3            1 RES     
   26028 H3        1056.4136 -1219.5143  -804.8246 H3            1 RES     
   26029 N4        1059.2331 -1218.9630  -804.4234 N4            1 RES     
   26030 C1        1060.5664 -1218.9940  -804.7198 C1            1 RES     
   26031 C1        1061.3990 -1217.9157  -804.3964 C1            1 RES     
   26032 C1        1060.8353 -1216.8117  -803.7692 C1            1 RES     
   26033 N4        1061.5381 -1215.7039  -803.4281 N4            1 RES     
   26034 S2        1060.3768 -1214.7479  -802.7462 S2            1 RES     
   26035 N4        1059.0071 -1215.6663  -802.8445 N4            1 RES     
   26036 C1        1059.4503 -1216.7998  -803.4497 C1            1 RES     
   26037 C1        1058.6429 -1217.9075  -803.7867 C1            1 RES     
   26038 H5        1060.9878 -1219.8650  -805.2048 H5            1 RES     
   26039 C0        1052.9831 -1218.5743  -804.9664 C0            1 RES     
   26040 C0        1051.4981 -1218.8779  -805.1891 C0            1 RES     
   26041 C0        1050.8383 -1218.1881  -806.3872 C0            1 RES     
   26042 C0        1050.8093 -1216.6520  -806.3426 C0            1 RES     
   26043 C0        1050.3496 -1216.0864  -804.9832 C0            1 RES     
   26044 C0        1050.0519 -1214.5837  -805.0539 C0            1 RES     
   26045 C0        1048.6644 -1214.3311  -805.6643 C0            1 RES     
   26046 C0        1048.3732 -1212.8364  -805.8043 C0            1 RES     
   26047 C0        1046.9111 -1212.6130  -806.2027 C0            1 RES     
   26048 C0        1046.5377 -1211.1917  -806.6692 C0            1 RES     
   26049 C0        1046.7908 -1210.0164  -805.7039 C0            1 RES     
   26050 C0        1048.2548 -1209.5222  -805.6966 C0            1 RES     
   26051 C0        1048.5316 -1208.3031  -804.7944 C0            1 RES     
   26052 C0        1048.1717 -1206.9055  -805.3535 C0            1 RES     
   26053 C0        1046.6908 -1206.5662  -805.5789 C0            1 RES     
   26054 C0        1045.8465 -1206.7272  -804.3162 C0            1 RES     
   26055 H6        1053.1045 -1217.4718  -804.9092 H6            1 RES     
   26056 H6        1053.5694 -1218.9289  -805.8421 H6            1 RES     
   26057 H6        1051.3967 -1219.9469  -805.3697 H6            1 RES     
   26058 H6        1050.9122 -1218.6137  -804.2895 H6            1 RES     
   26059 H6        1051.3128 -1218.5164  -807.3372 H6            1 RES     
   26060 H6        1049.7825 -1218.5409  -806.3998 H6            1 RES     
   26061 H6        1051.8178 -1216.2402  -806.5645 H6            1 RES     
   26062 H6        1050.1321 -1216.3347  -807.1622 H6            1 RES     
   26063 H6        1049.4510 -1216.6147  -804.5960 H6            1 RES     
   26064 H6        1051.1776 -1216.2476  -804.2599 H6            1 RES     
   26065 H6        1050.8611 -1214.0615  -805.6110 H6            1 RES     
   26066 H6        1050.0282 -1214.1782  -804.0186 H6            1 RES     
   26067 H6        1048.5725 -1214.7975  -806.6671 H6            1 RES     
   26068 H6        1047.9093 -1214.7950  -804.9902 H6            1 RES     
   26069 H6        1048.5457 -1212.3517  -804.8221 H6            1 RES     
   26070 H6        1049.0583 -1212.4201  -806.5748 H6            1 RES     
   26071 H6        1046.6619 -1213.2850  -807.0536 H6            1 RES     
   26072 H6        1046.2691 -1212.9061  -805.3419 H6            1 RES     
   26073 H6        1047.0168 -1210.9664  -807.6464 H6            1 RES     
   26074 H6        1045.4400 -1211.2366  -806.8485 H6            1 RES     
   26075 H6        1046.4330 -1210.2684  -804.6822 H6            1 RES     
   26076 H6        1046.1615 -1209.2024  -806.0834 H6            1 RES     
   26077 H6        1048.8887 -1210.3258  -805.2968 H6            1 RES     
   26078 H6        1048.6091 -1209.3036  -806.7273 H6            1 RES     
   26079 H6        1049.6372 -1208.2668  -804.6689 H6            1 RES     
   26080 H6        1048.1043 -1208.4672  -803.7828 H6            1 RES     
   26081 H6        1048.5693 -1206.1617  -804.6282 H6            1 RES     
   26082 H6        1048.7133 -1206.7526  -806.3126 H6            1 RES     
   26083 H6        1046.6320 -1205.5053  -805.9050 H6            1 RES     
   26084 H6        1046.2692 -1207.1576  -806.4099 H6            1 RES     
   26085 H6        1046.2461 -1206.0853  -803.5029 H6            1 RES     
   26086 H6        1044.8006 -1206.4229  -804.5303 H6            1 RES     
   26087 H6        1045.8371 -1207.7830  -803.9769 H6            1 RES     
   26088 C0        1053.5999 -1220.7658  -803.6286 C0            1 RES     
   26089 C0        1052.3114 -1221.4630  -803.1273 C0            1 RES     
   26090 C0        1052.2308 -1222.9995  -803.2580 C0            1 RES     
   26091 C0        1051.9220 -1223.5864  -804.6576 C0            1 RES     
   26092 C0        1050.7001 -1222.9213  -805.3248 C0            1 RES     
   26093 C0        1050.0930 -1223.6941  -806.5046 C0            1 RES     
   26094 C0        1049.1822 -1224.8355  -806.0233 C0            1 RES     
   26095 C0        1048.4991 -1225.5497  -807.1989 C0            1 RES     
   26096 C0        1047.4581 -1226.5531  -806.6853 C0            1 RES     
   26097 C0        1046.8771 -1227.5436  -807.7174 C0            1 RES     
   26098 C0        1046.0686 -1226.9908  -808.9104 C0            1 RES     
   26099 C0        1046.9340 -1226.4336  -810.0592 C0            1 RES     
   26100 C0        1046.1480 -1225.9663  -811.3029 C0            1 RES     
   26101 C0        1045.6964 -1227.0502  -812.3134 C0            1 RES     
   26102 C0        1044.6267 -1228.0632  -811.8773 C0            1 RES     
   26103 C0        1043.3339 -1227.3974  -811.4098 C0            1 RES     
   26104 H6        1053.8740 -1221.1161  -804.6472 H6            1 RES     
   26105 H6        1054.4009 -1221.1156  -802.9393 H6            1 RES     
   26106 H6        1052.2691 -1221.2601  -802.0372 H6            1 RES     
   26107 H6        1051.3968 -1221.0465  -803.5700 H6            1 RES     
   26108 H6        1053.1388 -1223.4762  -802.8303 H6            1 RES     
   26109 H6        1051.3708 -1223.3052  -802.6208 H6            1 RES     
   26110 H6        1052.7961 -1223.5001  -805.3389 H6            1 RES     
   26111 H6        1051.7216 -1224.6670  -804.4972 H6            1 RES     
   26112 H6        1049.8904 -1222.7208  -804.5888 H6            1 RES     
   26113 H6        1051.0568 -1221.9619  -805.7223 H6            1 RES     
   26114 H6        1050.8891 -1224.0471  -807.1962 H6            1 RES     
   26115 H6        1049.4407 -1222.9871  -807.0620 H6            1 RES     
   26116 H6        1049.7595 -1225.5728  -805.4269 H6            1 RES     
   26117 H6        1048.3933 -1224.3931  -805.3734 H6            1 RES     
   26118 H6        1047.9807 -1224.7853  -807.8092 H6            1 RES     
   26119 H6        1049.2763 -1226.0670  -807.8014 H6            1 RES     
   26120 H6        1047.9425 -1227.1837  -805.9074 H6            1 RES     
   26121 H6        1046.6296 -1225.9923  -806.1974 H6            1 RES     
   26122 H6        1047.6751 -1228.2177  -808.0967 H6            1 RES     
   26123 H6        1046.1723 -1228.1736  -807.1293 H6            1 RES     
   26124 H6        1045.3210 -1226.2453  -808.5625 H6            1 RES     
   26125 H6        1045.5142 -1227.8559  -809.2953 H6            1 RES     
   26126 H6        1047.4529 -1225.5387  -809.6879 H6            1 RES     
   26127 H6        1047.7088 -1227.1669  -810.3710 H6            1 RES     
   26128 H6        1046.8569 -1225.3357  -811.8851 H6            1 RES     
   26129 H6        1045.3080 -1225.3039  -811.0049 H6            1 RES     
   26130 H6        1045.2892 -1226.5110  -813.1973 H6            1 RES     
   26131 H6        1046.5908 -1227.6149  -812.6563 H6            1 RES     
   26132 H6        1044.3893 -1228.7038  -812.7546 H6            1 RES     
   26133 H6        1045.0163 -1228.7476  -811.1040 H6            1 RES     
   26134 H6        1042.9194 -1226.7553  -812.2157 H6            1 RES     
   26135 H6        1042.5866 -1228.1787  -811.1573 H6            1 RES     
   26136 H6        1043.5107 -1226.7808  -810.5050 H6            1 RES     
   26137 C0        1065.8734 -1218.7194  -807.1221 C0            1 RES     
   26138 C1        1064.8534 -1218.2524  -806.0628 C1            1 RES     
   26139 C1        1065.4582 -1217.7538  -804.8104 C1            1 RES     
   26140 S2        1064.3185 -1218.2246  -803.4998 S2            1 RES     
   26141 C1        1063.0581 -1217.9518  -804.7651 C1            1 RES     
   26142 C1        1063.5259 -1218.2024  -806.0415 C1            1 RES     
   26143 C1        1066.7945 -1218.3132  -804.9493 C1            1 RES     
   26144 C1        1067.0769 -1218.8116  -806.1880 C1            1 RES     
   26145 C1        1068.4035 -1219.2653  -806.3008 C1            1 RES     
   26146 C1        1069.1306 -1219.0472  -805.1060 C1            1 RES     
   26147 S2        1068.1211 -1218.3104  -803.9561 S2            1 RES     
   26148 H3        1062.8628 -1218.4476  -806.8549 H3            1 RES     
   26149 H3        1068.8189 -1219.7086  -807.1973 H3            1 RES     
   26150 N4        1071.1491 -1220.3691  -805.6011 N4            1 RES     
   26151 C1        1072.4267 -1220.7960  -805.3730 C1            1 RES     
   26152 C1        1073.1951 -1220.2428  -804.3414 C1            1 RES     
   26153 C1        1072.6274 -1219.2466  -803.5571 C1            1 RES     
   26154 N4        1073.2818 -1218.6252  -802.5457 N4            1 RES     
   26155 S2        1072.1473 -1217.5576  -801.9973 S2            1 RES     
   26156 N4        1070.8424 -1217.8398  -802.9703 N4            1 RES     
   26157 C1        1071.2907 -1218.8245  -803.7930 C1            1 RES     
   26158 C1        1070.5447 -1219.4089  -804.8392 C1            1 RES     
   26159 H5        1072.8500 -1221.5763  -805.9922 H5            1 RES     
   26160 C0        1066.1315 -1217.5842  -808.1655 C0            1 RES     
   26161 C0        1064.9070 -1217.2447  -809.0213 C0            1 RES     
   26162 C0        1065.0489 -1216.0418  -809.9591 C0            1 RES     
   26163 C0        1065.3018 -1214.6877  -809.2774 C0            1 RES     
   26164 C0        1064.3683 -1214.4206  -808.0788 C0            1 RES     
   26165 C0        1064.4396 -1212.9639  -807.6049 C0            1 RES     
   26166 C0        1063.5923 -1212.0545  -808.5086 C0            1 RES     
   26167 C0        1063.7007 -1210.5869  -808.0929 C0            1 RES     
   26168 C0        1062.6824 -1209.7385  -808.8609 C0            1 RES     
   26169 C0        1062.8623 -1208.2096  -808.7767 C0            1 RES     
   26170 C0        1062.8464 -1207.5481  -807.3841 C0            1 RES     
   26171 C0        1064.1929 -1207.6483  -806.6329 C0            1 RES     
   26172 C0        1064.2360 -1206.9383  -805.2651 C0            1 RES     
   26173 C0        1064.4671 -1205.4079  -805.2628 C0            1 RES     
   26174 C0        1063.3726 -1204.5012  -805.8450 C0            1 RES     
   26175 C0        1062.0145 -1204.7069  -805.1770 C0            1 RES     
   26176 H6        1066.4227 -1216.6717  -807.6034 H6            1 RES     
   26177 H6        1066.9833 -1217.8537  -808.8274 H6            1 RES     
   26178 H6        1064.6985 -1218.0986  -809.6638 H6            1 RES     
   26179 H6        1064.0266 -1217.0623  -808.3779 H6            1 RES     
   26180 H6        1065.8456 -1216.2254  -810.7122 H6            1 RES     
   26181 H6        1064.0821 -1215.9643  -810.5054 H6            1 RES     
   26182 H6        1066.3518 -1214.6269  -808.9172 H6            1 RES     
   26183 H6        1065.1754 -1213.9190  -810.0673 H6            1 RES     
   26184 H6        1063.3107 -1214.6731  -808.3119 H6            1 RES     
   26185 H6        1064.7003 -1215.0782  -807.2470 H6            1 RES     
   26186 H6        1065.5006 -1212.6341  -807.5477 H6            1 RES     
   26187 H6        1064.0033 -1212.9019  -806.5838 H6            1 RES     
   26188 H6        1063.9022 -1212.1377  -809.5709 H6            1 RES     
   26189 H6        1062.5330 -1212.3871  -808.4243 H6            1 RES     
   26190 H6        1063.4732 -1210.5109  -807.0104 H6            1 RES     
   26191 H6        1064.7369 -1210.2425  -808.3028 H6            1 RES     
   26192 H6        1062.7450 -1209.9906  -809.9427 H6            1 RES     
   26193 H6        1061.6640 -1210.0165  -808.5079 H6            1 RES     
   26194 H6        1063.7837 -1207.8978  -809.3144 H6            1 RES     
   26195 H6        1061.9992 -1207.7957  -809.3448 H6            1 RES     
   26196 H6        1062.0024 -1207.9409  -806.7768 H6            1 RES     
   26197 H6        1062.6472 -1206.4878  -807.5805 H6            1 RES     
   26198 H6        1064.3883 -1208.7072  -806.4136 H6            1 RES     
   26199 H6        1065.0317 -1207.2811  -807.2632 H6            1 RES     
   26200 H6        1065.1300 -1207.3468  -804.7423 H6            1 RES     
   26201 H6        1063.3544 -1207.2249  -804.6540 H6            1 RES     
   26202 H6        1064.6056 -1205.1096  -804.2002 H6            1 RES     
   26203 H6        1065.4193 -1205.1882  -805.7936 H6            1 RES     
   26204 H6        1063.6846 -1203.4467  -805.6836 H6            1 RES     
   26205 H6        1063.2936 -1204.6250  -806.9388 H6            1 RES     
   26206 H6        1062.0928 -1204.5253  -804.0842 H6            1 RES     
   26207 H6        1061.2802 -1203.9933  -805.6060 H6            1 RES     
   26208 H6        1061.6387 -1205.7358  -805.3501 H6            1 RES     
   26209 C0        1065.5936 -1220.1388  -807.7684 C0            1 RES     
   26210 C0        1064.1146 -1220.4318  -808.1214 C0            1 RES     
   26211 C0        1063.8090 -1221.7210  -808.9144 C0            1 RES     
   26212 C0        1064.0994 -1221.7145  -810.4358 C0            1 RES     
   26213 C0        1063.5013 -1220.4846  -811.1500 C0            1 RES     
   26214 C0        1063.3950 -1220.5981  -812.6776 C0            1 RES     
   26215 C0        1062.1627 -1221.4155  -813.0987 C0            1 RES     
   26216 C0        1062.0007 -1221.4508  -814.6256 C0            1 RES     
   26217 C0        1060.6682 -1222.1081  -815.0086 C0            1 RES     
   26218 C0        1060.4712 -1222.4670  -816.4974 C0            1 RES     
   26219 C0        1060.4567 -1221.3323  -817.5438 C0            1 RES     
   26220 C0        1061.8556 -1220.8179  -817.9408 C0            1 RES     
   26221 C0        1061.8680 -1219.7522  -819.0574 C0            1 RES     
   26222 C0        1061.7533 -1220.2471  -820.5209 C0            1 RES     
   26223 C0        1060.4315 -1220.8796  -820.9826 C0            1 RES     
   26224 C0        1059.2304 -1219.9573  -820.7835 C0            1 RES     
   26225 H6        1066.2471 -1220.2483  -808.6608 H6            1 RES     
   26226 H6        1065.8819 -1220.9432  -807.0550 H6            1 RES     
   26227 H6        1063.5968 -1220.5581  -807.1481 H6            1 RES     
   26228 H6        1063.6240 -1219.5997  -808.6437 H6            1 RES     
   26229 H6        1064.2894 -1222.5994  -808.4326 H6            1 RES     
   26230 H6        1062.7083 -1221.8645  -808.8315 H6            1 RES     
   26231 H6        1065.1905 -1221.7568  -810.6437 H6            1 RES     
   26232 H6        1063.6408 -1222.6430  -810.8372 H6            1 RES     
   26233 H6        1062.4950 -1220.2286  -810.7509 H6            1 RES     
   26234 H6        1064.1836 -1219.6505  -810.9394 H6            1 RES     
   26235 H6        1064.3388 -1220.9970  -813.1100 H6            1 RES     
   26236 H6        1063.2405 -1219.5715  -813.0753 H6            1 RES     
   26237 H6        1062.2284 -1222.4529  -812.7091 H6            1 RES     
   26238 H6        1061.2624 -1220.9280  -812.6601 H6            1 RES     
   26239 H6        1061.9972 -1220.4066  -814.9936 H6            1 RES     
   26240 H6        1062.8536 -1222.0139  -815.0612 H6            1 RES     
   26241 H6        1060.5884 -1223.0709  -814.4572 H6            1 RES     
   26242 H6        1059.8345 -1221.4540  -814.6679 H6            1 RES     
   26243 H6        1061.2048 -1223.2420  -816.8076 H6            1 RES     
   26244 H6        1059.4638 -1222.9392  -816.5367 H6            1 RES     
   26245 H6        1059.7952 -1220.5034  -817.2105 H6            1 RES     
   26246 H6        1059.9976 -1221.7807  -818.4337 H6            1 RES     
   26247 H6        1062.2967 -1220.3263  -817.0623 H6            1 RES     
   26248 H6        1062.5255 -1221.6567  -818.2289 H6            1 RES     
   26249 H6        1062.8762 -1219.2826  -819.0114 H6            1 RES     
   26250 H6        1061.1350 -1218.9482  -818.8347 H6            1 RES     
   26251 H6        1061.9322 -1219.3620  -821.1709 H6            1 RES     
   26252 H6        1062.5734 -1220.9714  -820.7192 H6            1 RES     
   26253 H6        1060.5229 -1221.1005  -822.0686 H6            1 RES     
   26254 H6        1060.2622 -1221.8540  -820.4926 H6            1 RES     
   26255 H6        1059.3856 -1219.0016  -821.3277 H6            1 RES     
   26256 H6        1058.3175 -1220.4488  -821.1806 H6            1 RES     
   26257 H6        1059.0692 -1219.7437  -819.7072 H6            1 RES     
   26258 C0        1078.1740 -1221.7836  -805.3069 C0            1 RES     
   26259 C1        1076.8849 -1221.3107  -804.6033 C1            1 RES     
   26260 C1        1076.9011 -1221.4598  -803.1335 C1            1 RES     
   26261 S2        1075.2068 -1221.8454  -802.6658 S2            1 RES     
   26262 C1        1074.7853 -1220.7718  -804.0565 C1            1 RES     
   26263 C1        1075.7474 -1220.7881  -805.0489 C1            1 RES     
   26264 C1        1078.0032 -1222.4008  -802.9994 C1            1 RES     
   26265 C1        1078.7403 -1222.5794  -804.1341 C1            1 RES     
   26266 C1        1079.8420 -1223.4312  -803.9369 C1            1 RES     
   26267 C1        1079.9360 -1223.8558  -802.5898 C1            1 RES     
   26268 S2        1078.6650 -1223.1750  -801.6922 S2            1 RES     
   26269 H3        1075.5207 -1220.5231  -806.0686 H3            1 RES     
   26270 H3        1080.5401 -1223.7105  -804.7163 H3            1 RES     
   26271 N4        1081.6442 -1225.6144  -802.8268 N4            1 RES     
   26272 C1        1082.5462 -1226.5250  -802.3540 C1            1 RES     
   26273 C1        1082.8188 -1226.6206  -800.9839 C1            1 RES     
   26274 C1        1082.1515 -1225.7644  -800.1170 C1            1 RES     
   26275 N4        1082.3495 -1225.7523  -798.7760 N4            1 RES     
   26276 S2        1081.3234 -1224.5567  -798.2808 S2            1 RES     
   26277 N4        1080.6161 -1224.0430  -799.6826 N4            1 RES     
   26278 C1        1081.2017 -1224.8342  -800.6200 C1            1 RES     
   26279 C1        1080.9492 -1224.7700  -802.0073 C1            1 RES     
   26280 H5        1083.0530 -1227.1864  -803.0448 H5            1 RES     
   26281 C0        1079.1148 -1220.5680  -805.5918 C0            1 RES     
   26282 C0        1078.5414 -1219.5693  -806.6020 C0            1 RES     
   26283 C0        1079.3454 -1218.2826  -806.8130 C0            1 RES     
   26284 C0        1079.4997 -1217.3797  -805.5787 C0            1 RES     
   26285 C0        1078.1791 -1217.1557  -804.8137 C0            1 RES     
   26286 C0        1078.2972 -1216.0348  -803.7740 C0            1 RES     
   26287 C0        1078.1805 -1214.6562  -804.4429 C0            1 RES     
   26288 C0        1078.3603 -1213.5220  -803.4332 C0            1 RES     
   26289 C0        1078.0205 -1212.1748  -804.0783 C0            1 RES     
   26290 C0        1078.4319 -1210.9149  -803.2907 C0            1 RES     
   26291 C0        1077.8812 -1210.7349  -801.8618 C0            1 RES     
   26292 C0        1078.6559 -1211.5361  -800.7915 C0            1 RES     
   26293 C0        1078.1770 -1211.3274  -799.3410 C0            1 RES     
   26294 C0        1078.6718 -1210.0608  -798.6018 C0            1 RES     
   26295 C0        1078.1892 -1208.6891  -799.0961 C0            1 RES     
   26296 C0        1076.6665 -1208.5716  -799.1267 C0            1 RES     
   26297 H6        1079.2732 -1220.0339  -804.6310 H6            1 RES     
   26298 H6        1080.1084 -1220.9221  -805.9437 H6            1 RES     
   26299 H6        1078.5037 -1220.0581  -807.5741 H6            1 RES     
   26300 H6        1077.5152 -1219.2761  -806.3130 H6            1 RES     
   26301 H6        1080.3521 -1218.5138  -807.2237 H6            1 RES     
   26302 H6        1078.7936 -1217.7003  -807.5848 H6            1 RES     
   26303 H6        1080.2386 -1217.8153  -804.8716 H6            1 RES     
   26304 H6        1079.9187 -1216.4220  -805.9506 H6            1 RES     
   26305 H6        1077.3355 -1216.9241  -805.5003 H6            1 RES     
   26306 H6        1077.9378 -1218.1026  -804.2848 H6            1 RES     
   26307 H6        1079.2427 -1216.1476  -803.1986 H6            1 RES     
   26308 H6        1077.4473 -1216.1214  -803.0618 H6            1 RES     
   26309 H6        1078.9376 -1214.5301  -805.2444 H6            1 RES     
   26310 H6        1077.1682 -1214.5880  -804.9017 H6            1 RES     
   26311 H6        1077.6627 -1213.6905  -802.5880 H6            1 RES     
   26312 H6        1079.4152 -1213.5343  -803.0818 H6            1 RES     
   26313 H6        1078.5422 -1212.1018  -805.0582 H6            1 RES     
   26314 H6        1076.9254 -1212.1525  -804.2765 H6            1 RES     
   26315 H6        1079.5388 -1210.8177  -803.2663 H6            1 RES     
   26316 H6        1078.0448 -1210.0670  -803.8992 H6            1 RES     
   26317 H6        1076.7916 -1210.9525  -801.8349 H6            1 RES     
   26318 H6        1078.0109 -1209.6678  -801.6446 H6            1 RES     
   26319 H6        1078.5123 -1212.6072  -800.9906 H6            1 RES     
   26320 H6        1079.7471 -1211.3324  -800.8504 H6            1 RES     
   26321 H6        1078.6133 -1212.1685  -798.7565 H6            1 RES     
   26322 H6        1077.0740 -1211.4387  -799.2794 H6            1 RES     
   26323 H6        1078.3404 -1210.1608  -797.5447 H6            1 RES     
   26324 H6        1079.7838 -1210.0581  -798.5997 H6            1 RES     
   26325 H6        1078.5845 -1207.9191  -798.3988 H6            1 RES     
   26326 H6        1078.6204 -1208.4475  -800.0829 H6            1 RES     
   26327 H6        1076.2465 -1208.7615  -798.1164 H6            1 RES     
   26328 H6        1076.3817 -1207.5469  -799.4452 H6            1 RES     
   26329 H6        1076.2272 -1209.2922  -799.8462 H6            1 RES     
   26330 C0        1077.9670 -1222.7448  -806.5495 C0            1 RES     
   26331 C0        1076.8121 -1222.3597  -807.5063 C0            1 RES     
   26332 C0        1076.6786 -1223.1533  -808.8242 C0            1 RES     
   26333 C0        1077.6559 -1222.8058  -809.9744 C0            1 RES     
   26334 C0        1077.7245 -1221.2908  -810.2589 C0            1 RES     
   26335 C0        1078.3417 -1220.9026  -811.6102 C0            1 RES     
   26336 C0        1077.3285 -1221.0506  -812.7572 C0            1 RES     
   26337 C0        1077.9128 -1220.5731  -814.0948 C0            1 RES     
   26338 C0        1076.8268 -1220.5545  -815.1786 C0            1 RES     
   26339 C0        1077.2999 -1220.3612  -816.6355 C0            1 RES     
   26340 C0        1078.0087 -1219.0457  -817.0225 C0            1 RES     
   26341 C0        1079.4967 -1218.9852  -816.6211 C0            1 RES     
   26342 C0        1080.2487 -1217.7197  -817.0858 C0            1 RES     
   26343 C0        1080.7538 -1217.6841  -818.5499 C0            1 RES     
   26344 C0        1079.7193 -1217.6243  -819.6842 C0            1 RES     
   26345 C0        1078.7749 -1216.4298  -819.5643 C0            1 RES     
   26346 H6        1078.9321 -1222.8174  -807.0962 H6            1 RES     
   26347 H6        1077.7164 -1223.7705  -806.1971 H6            1 RES     
   26348 H6        1075.8787 -1222.5688  -806.9439 H6            1 RES     
   26349 H6        1076.8036 -1221.2920  -807.7626 H6            1 RES     
   26350 H6        1076.6886 -1224.2463  -808.6250 H6            1 RES     
   26351 H6        1075.6682 -1222.9027  -809.2185 H6            1 RES     
   26352 H6        1078.6816 -1223.1802  -809.7663 H6            1 RES     
   26353 H6        1077.2743 -1223.3401  -810.8701 H6            1 RES     
   26354 H6        1076.7217 -1220.8149  -810.1866 H6            1 RES     
   26355 H6        1078.3706 -1220.8652  -809.4797 H6            1 RES     
   26356 H6        1079.2791 -1221.4721  -811.7937 H6            1 RES     
   26357 H6        1078.5993 -1219.8224  -811.5576 H6            1 RES     
   26358 H6        1076.9965 -1222.1056  -812.8534 H6            1 RES     
   26359 H6        1076.4426 -1220.4205  -812.5148 H6            1 RES     
   26360 H6        1078.2891 -1219.5413  -813.9552 H6            1 RES     
   26361 H6        1078.7420 -1221.2536  -814.3843 H6            1 RES     
   26362 H6        1076.3073 -1221.5380  -815.1622 H6            1 RES     
   26363 H6        1076.0772 -1219.7727  -814.9218 H6            1 RES     
   26364 H6        1077.9257 -1221.2222  -816.9552 H6            1 RES     
   26365 H6        1076.3640 -1220.3989  -817.2372 H6            1 RES     
   26366 H6        1077.4442 -1218.1703  -816.6345 H6            1 RES     
   26367 H6        1077.9536 -1219.0121  -818.1179 H6            1 RES     
   26368 H6        1079.5502 -1218.9706  -815.5234 H6            1 RES     
   26369 H6        1080.0450 -1219.8857  -816.9729 H6            1 RES     
   26370 H6        1081.1816 -1217.6866  -816.4795 H6            1 RES     
   26371 H6        1079.6709 -1216.8076  -816.8260 H6            1 RES     
   26372 H6        1081.3900 -1216.7764  -818.6448 H6            1 RES     
   26373 H6        1081.4100 -1218.5648  -818.7237 H6            1 RES     
   26374 H6        1080.2738 -1217.5330  -820.6437 H6            1 RES     
   26375 H6        1079.1504 -1218.5674  -819.7563 H6            1 RES     
   26376 H6        1079.3541 -1215.4822  -819.5502 H6            1 RES     
   26377 H6        1078.0873 -1216.4137  -820.4358 H6            1 RES     
   26378 H6        1078.1639 -1216.4992  -818.6413 H6            1 RES     
   26379 C0        1087.2448 -1229.5149  -800.6232 C0            1 RES     
   26380 C1        1085.8964 -1228.8337  -800.3097 C1            1 RES     
   26381 C1        1085.1785 -1229.4041  -799.1512 C1            1 RES     
   26382 S2        1083.4288 -1229.2638  -799.5470 S2            1 RES     
   26383 C1        1083.9416 -1227.7523  -800.3935 C1            1 RES     
   26384 C1        1085.2370 -1227.8258  -800.8706 C1            1 RES     
   26385 C1        1085.8752 -1230.6770  -799.0395 C1            1 RES     
   26386 C1        1087.0142 -1230.7698  -799.7856 C1            1 RES     
   26387 C1        1087.6977 -1231.9824  -799.5838 C1            1 RES     
   26388 C1        1087.0515 -1232.7882  -798.6160 C1            1 RES     
   26389 S2        1085.6663 -1231.9872  -798.0466 S2            1 RES     
   26390 H3        1085.5818 -1227.2088  -801.6840 H3            1 RES     
   26391 H3        1088.6138 -1232.2544  -800.0931 H3            1 RES     
   26392 N4        1088.2855 -1234.8953  -798.9391 N4            1 RES     
   26393 C1        1088.6548 -1236.1681  -798.6071 C1            1 RES     
   26394 C1        1088.2146 -1236.7554  -797.4148 C1            1 RES     
   26395 C1        1087.3953 -1236.0108  -796.5756 C1            1 RES     
   26396 N4        1086.9261 -1236.4671  -795.3885 N4            1 RES     
   26397 S2        1086.0433 -1235.1824  -794.8430 S2            1 RES     
   26398 N4        1086.2076 -1234.0578  -796.0420 N4            1 RES     
   26399 C1        1087.0033 -1234.6944  -796.9415 C1            1 RES     
   26400 C1        1087.4628 -1234.1371  -798.1543 C1            1 RES     
   26401 H5        1089.2903 -1236.7338  -799.2761 H5            1 RES     
   26402 C0        1088.4234 -1228.7009  -799.9970 C0            1 RES     
   26403 C0        1088.6096 -1227.3120  -800.6160 C0            1 RES     
   26404 C0        1089.6496 -1226.4070  -799.9482 C0            1 RES     
   26405 C0        1089.3674 -1226.0292  -798.4853 C0            1 RES     
   26406 C0        1087.9142 -1225.5746  -798.2386 C0            1 RES     
   26407 C0        1087.7364 -1224.9338  -796.8568 C0            1 RES     
   26408 C0        1088.2247 -1223.4767  -796.8648 C0            1 RES     
   26409 C0        1088.1167 -1222.8378  -795.4797 C0            1 RES     
   26410 C0        1088.3963 -1221.3340  -795.5627 C0            1 RES     
   26411 C0        1088.6174 -1220.6034  -794.2232 C0            1 RES     
   26412 C0        1087.4977 -1220.6640  -793.1650 C0            1 RES     
   26413 C0        1087.4934 -1221.9695  -792.3385 C0            1 RES     
   26414 C0        1086.4305 -1222.0374  -791.2239 C0            1 RES     
   26415 C0        1086.7473 -1221.3170  -789.8912 C0            1 RES     
   26416 C0        1086.8373 -1219.7838  -789.8911 C0            1 RES     
   26417 C0        1085.5708 -1219.1151  -790.4220 C0            1 RES     
   26418 H6        1088.2037 -1228.5698  -798.9162 H6            1 RES     
   26419 H6        1089.3737 -1229.2727  -800.0766 H6            1 RES     
   26420 H6        1088.9470 -1227.4438  -801.6428 H6            1 RES     
   26421 H6        1087.6496 -1226.7636  -800.6264 H6            1 RES     
   26422 H6        1090.6631 -1226.8579  -800.0194 H6            1 RES     
   26423 H6        1089.6594 -1225.4641  -800.5398 H6            1 RES     
   26424 H6        1089.5774 -1226.8919  -797.8164 H6            1 RES     
   26425 H6        1090.0905 -1225.2269  -798.2314 H6            1 RES     
   26426 H6        1087.5650 -1224.8599  -799.0158 H6            1 RES     
   26427 H6        1087.2703 -1226.4785  -798.2931 H6            1 RES     
   26428 H6        1088.2492 -1225.5480  -796.0839 H6            1 RES     
   26429 H6        1086.6512 -1224.9097  -796.6146 H6            1 RES     
   26430 H6        1089.2808 -1223.4057  -797.1979 H6            1 RES     
   26431 H6        1087.5903 -1222.9119  -797.5847 H6            1 RES     
   26432 H6        1087.0823 -1222.9808  -795.1067 H6            1 RES     
   26433 H6        1088.8498 -1223.3373  -794.8091 H6            1 RES     
   26434 H6        1089.3259 -1221.1715  -796.1520 H6            1 RES     
   26435 H6        1087.5575 -1220.8561  -796.1168 H6            1 RES     
   26436 H6        1089.5726 -1220.9288  -793.7576 H6            1 RES     
   26437 H6        1088.7418 -1219.5341  -794.5062 H6            1 RES     
   26438 H6        1086.5091 -1220.4663  -793.6332 H6            1 RES     
   26439 H6        1087.7126 -1219.8329  -792.4826 H6            1 RES     
   26440 H6        1087.2571 -1222.8045  -793.0126 H6            1 RES     
   26441 H6        1088.4958 -1222.1707  -791.9020 H6            1 RES     
   26442 H6        1086.3609 -1223.1116  -790.9398 H6            1 RES     
   26443 H6        1085.4346 -1221.7512  -791.6229 H6            1 RES     
   26444 H6        1085.9386 -1221.5956  -789.1800 H6            1 RES     
   26445 H6        1087.6993 -1221.7212  -789.4825 H6            1 RES     
   26446 H6        1086.9924 -1219.4533  -788.8412 H6            1 RES     
   26447 H6        1087.7255 -1219.4373  -790.4472 H6            1 RES     
   26448 H6        1084.6910 -1219.4270  -789.8202 H6            1 RES     
   26449 H6        1085.6785 -1218.0124  -790.3522 H6            1 RES     
   26450 H6        1085.3982 -1219.3793  -791.4851 H6            1 RES     
   26451 C0        1087.4745 -1229.9225  -802.1372 C0            1 RES     
   26452 C0        1087.0177 -1228.8790  -803.1861 C0            1 RES     
   26453 C0        1087.3790 -1229.1432  -804.6640 C0            1 RES     
   26454 C0        1088.8336 -1228.8544  -805.1108 C0            1 RES     
   26455 C0        1089.3232 -1227.4577  -804.6748 C0            1 RES     
   26456 C0        1090.5735 -1226.9423  -805.4021 C0            1 RES     
   26457 C0        1090.2252 -1226.3655  -806.7841 C0            1 RES     
   26458 C0        1091.4581 -1225.7632  -807.4741 C0            1 RES     
   26459 C0        1091.0497 -1225.0312  -808.7592 C0            1 RES     
   26460 C0        1092.1892 -1224.6044  -809.7097 C0            1 RES     
   26461 C0        1093.2373 -1223.5873  -809.2100 C0            1 RES     
   26462 C0        1094.3316 -1224.1953  -808.3089 C0            1 RES     
   26463 C0        1095.4441 -1223.2153  -807.8792 C0            1 RES     
   26464 C0        1096.5836 -1222.9372  -808.8911 C0            1 RES     
   26465 C0        1096.2516 -1222.1727  -810.1818 C0            1 RES     
   26466 C0        1095.6179 -1220.8084  -809.9175 C0            1 RES     
   26467 H6        1088.5483 -1230.1780  -802.2683 H6            1 RES     
   26468 H6        1086.8917 -1230.8406  -802.3747 H6            1 RES     
   26469 H6        1085.9087 -1228.8885  -803.1505 H6            1 RES     
   26470 H6        1087.3408 -1227.8574  -802.9457 H6            1 RES     
   26471 H6        1087.0796 -1230.1709  -804.9618 H6            1 RES     
   26472 H6        1086.7510 -1228.4369  -805.2521 H6            1 RES     
   26473 H6        1089.5397 -1229.6208  -804.7240 H6            1 RES     
   26474 H6        1088.8310 -1228.9233  -806.2193 H6            1 RES     
   26475 H6        1088.5224 -1226.6925  -804.7779 H6            1 RES     
   26476 H6        1089.5869 -1227.5471  -803.6126 H6            1 RES     
   26477 H6        1091.3532 -1227.7334  -805.4549 H6            1 RES     
   26478 H6        1090.9792 -1226.0978  -804.8037 H6            1 RES     
   26479 H6        1089.7816 -1227.1477  -807.4351 H6            1 RES     
   26480 H6        1089.4732 -1225.5569  -806.6380 H6            1 RES     
   26481 H6        1091.9145 -1225.0304  -806.7809 H6            1 RES     
   26482 H6        1092.1742 -1226.5817  -807.7014 H6            1 RES     
   26483 H6        1090.4056 -1225.7151  -809.3549 H6            1 RES     
   26484 H6        1090.4371 -1224.1427  -808.4867 H6            1 RES     
   26485 H6        1092.7104 -1225.4991  -810.1133 H6            1 RES     
   26486 H6        1091.6679 -1224.1189  -810.5653 H6            1 RES     
   26487 H6        1092.7387 -1222.7222  -808.7214 H6            1 RES     
   26488 H6        1093.7203 -1223.2151  -810.1222 H6            1 RES     
   26489 H6        1093.8555 -1224.5251  -807.3749 H6            1 RES     
   26490 H6        1094.7941 -1225.0872  -808.7842 H6            1 RES     
   26491 H6        1095.9597 -1223.7052  -807.0228 H6            1 RES     
   26492 H6        1095.0026 -1222.2753  -807.4858 H6            1 RES     
   26493 H6        1097.3506 -1222.3398  -808.3502 H6            1 RES     
   26494 H6        1097.0573 -1223.9035  -809.1713 H6            1 RES     
   26495 H6        1097.2030 -1222.0121  -810.7345 H6            1 RES     
   26496 H6        1095.6152 -1222.7768  -810.8514 H6            1 RES     
   26497 H6        1096.2917 -1220.1870  -809.2902 H6            1 RES     
   26498 H6        1095.4488 -1220.2866  -810.8828 H6            1 RES     
   26499 H6        1094.6398 -1220.9183  -809.4063 H6            1 RES     
   26500 C0        1091.2695 -1241.0336  -796.7360 C0            1 RES     
   26501 C1        1090.0973 -1240.0320  -796.6780 C1            1 RES     
   26502 C1        1088.8176 -1240.6147  -796.2246 C1            1 RES     
   26503 S2        1087.5356 -1239.7355  -797.1308 S2            1 RES     
   26504 C1        1088.6737 -1238.3386  -796.9992 C1            1 RES     
   26505 C1        1089.9969 -1238.7359  -796.9527 C1            1 RES     
   26506 C1        1089.1131 -1242.0262  -796.4211 C1            1 RES     
   26507 C1        1090.4273 -1242.3043  -796.6624 C1            1 RES     
   26508 C1        1090.6802 -1243.6842  -796.7634 C1            1 RES     
   26509 C1        1089.5071 -1244.4450  -796.5422 C1            1 RES     
   26510 S2        1088.2045 -1243.3995  -796.2347 S2            1 RES     
   26511 H3        1090.8013 -1238.0774  -797.2366 H3            1 RES     
   26512 H3        1091.6554 -1244.1089  -796.9666 H3            1 RES     
   26513 N4        1090.3084 -1246.6613  -797.2583 N4            1 RES     
   26514 C1        1090.2182 -1248.0180  -797.3919 C1            1 RES     
   26515 C1        1089.1568 -1248.7270  -796.8164 C1            1 RES     
   26516 C1        1088.1988 -1248.0174  -796.1033 C1            1 RES     
   26517 N4        1087.1406 -1248.5986  -795.4870 N4            1 RES     
   26518 S2        1086.3737 -1247.3022  -794.8095 S2            1 RES     
   26519 N4        1087.3067 -1246.0160  -795.2619 N4            1 RES     
   26520 C1        1088.2943 -1246.6039  -795.9875 C1            1 RES     
   26521 C1        1089.3761 -1245.9224  -796.5855 C1            1 RES     
   26522 H5        1090.9722 -1248.5527  -797.9549 H5            1 RES     
   26523 C0        1092.1380 -1240.9293  -795.4403 C0            1 RES     
   26524 C0        1092.8638 -1239.5884  -795.2920 C0            1 RES     
   26525 C0        1093.6114 -1239.3653  -793.9737 C0            1 RES     
   26526 C0        1092.7438 -1239.3593  -792.7049 C0            1 RES     
   26527 C0        1091.4697 -1238.4999  -792.8371 C0            1 RES     
   26528 C0        1090.7816 -1238.2758  -791.4852 C0            1 RES     
   26529 C0        1091.4872 -1237.1648  -790.6919 C0            1 RES     
   26530 C0        1090.8569 -1236.9689  -789.3125 C0            1 RES     
   26531 C0        1091.4287 -1235.7184  -788.6375 C0            1 RES     
   26532 C0        1091.1199 -1235.5481  -787.1366 C0            1 RES     
   26533 C0        1089.6432 -1235.5045  -786.6954 C0            1 RES     
   26534 C0        1088.9903 -1236.8993  -786.5701 C0            1 RES     
   26535 C0        1087.5338 -1236.8993  -786.0647 C0            1 RES     
   26536 C0        1087.3083 -1236.7711  -784.5388 C0            1 RES     
   26537 C0        1087.6838 -1235.4498  -783.8517 C0            1 RES     
   26538 C0        1086.9829 -1234.2406  -784.4679 C0            1 RES     
   26539 H6        1091.4586 -1241.0515  -794.5702 H6            1 RES     
   26540 H6        1092.8786 -1241.7578  -795.4034 H6            1 RES     
   26541 H6        1093.6180 -1239.5256  -796.0748 H6            1 RES     
   26542 H6        1092.1533 -1238.7505  -795.4169 H6            1 RES     
   26543 H6        1094.4257 -1240.1126  -793.8550 H6            1 RES     
   26544 H6        1094.0861 -1238.3619  -794.0573 H6            1 RES     
   26545 H6        1092.4359 -1240.3948  -792.4428 H6            1 RES     
   26546 H6        1093.3979 -1238.9894  -791.8886 H6            1 RES     
   26547 H6        1091.6814 -1237.5124  -793.3027 H6            1 RES     
   26548 H6        1090.7684 -1239.0471  -793.5029 H6            1 RES     
   26549 H6        1090.7317 -1239.2331  -790.9205 H6            1 RES     
   26550 H6        1089.7410 -1237.9297  -791.6705 H6            1 RES     
   26551 H6        1092.5648 -1237.3896  -790.5518 H6            1 RES     
   26552 H6        1091.3980 -1236.2224  -791.2781 H6            1 RES     
   26553 H6        1089.7648 -1236.8274  -789.4424 H6            1 RES     
   26554 H6        1091.0670 -1237.8751  -788.7031 H6            1 RES     
   26555 H6        1092.5383 -1235.7407  -788.7166 H6            1 RES     
   26556 H6        1091.0682 -1234.8270  -789.1982 H6            1 RES     
   26557 H6        1091.6521 -1236.3213  -786.5415 H6            1 RES     
   26558 H6        1091.5699 -1234.5658  -786.8692 H6            1 RES     
   26559 H6        1089.0589 -1234.8311  -787.3593 H6            1 RES     
   26560 H6        1089.6628 -1235.0498  -785.6977 H6            1 RES     
   26561 H6        1088.9477 -1237.3520  -787.5705 H6            1 RES     
   26562 H6        1089.6010 -1237.5713  -785.9290 H6            1 RES     
   26563 H6        1087.1293 -1237.9063  -786.3134 H6            1 RES     
   26564 H6        1086.9274 -1236.1655  -786.6362 H6            1 RES     
   26565 H6        1086.2214 -1236.9313  -784.3643 H6            1 RES     
   26566 H6        1087.8495 -1237.5959  -784.0257 H6            1 RES     
   26567 H6        1087.3790 -1235.5237  -782.7854 H6            1 RES     
   26568 H6        1088.7777 -1235.3044  -783.8400 H6            1 RES     
   26569 H6        1085.8811 -1234.3720  -784.4241 H6            1 RES     
   26570 H6        1087.2565 -1233.3265  -783.9004 H6            1 RES     
   26571 H6        1087.2920 -1234.0980  -785.5234 H6            1 RES     
   26572 C0        1092.1107 -1241.0317  -798.0788 C0            1 RES     
   26573 C0        1092.4241 -1239.6346  -798.6683 C0            1 RES     
   26574 C0        1093.3886 -1239.5647  -799.8721 C0            1 RES     
   26575 C0        1094.9043 -1239.7091  -799.5878 C0            1 RES     
   26576 C0        1095.3870 -1238.7826  -798.4523 C0            1 RES     
   26577 C0        1096.9059 -1238.5697  -798.3780 C0            1 RES     
   26578 C0        1097.3807 -1237.5262  -799.4026 C0            1 RES     
   26579 C0        1098.8837 -1237.2413  -799.2666 C0            1 RES     
   26580 C0        1099.2908 -1236.0674  -800.1668 C0            1 RES     
   26581 C0        1100.8043 -1235.8265  -800.3554 C0            1 RES     
   26582 C0        1101.6610 -1235.4580  -799.1254 C0            1 RES     
   26583 C0        1102.0491 -1236.6597  -798.2398 C0            1 RES     
   26584 C0        1102.9872 -1236.3269  -797.0600 C0            1 RES     
   26585 C0        1104.5011 -1236.1994  -797.3629 C0            1 RES     
   26586 C0        1104.9826 -1235.0229  -798.2259 C0            1 RES     
   26587 C0        1104.5791 -1233.6644  -797.6563 C0            1 RES     
   26588 H6        1093.0433 -1241.6107  -797.9045 H6            1 RES     
   26589 H6        1091.5464 -1241.5599  -798.8798 H6            1 RES     
   26590 H6        1091.4554 -1239.2485  -799.0476 H6            1 RES     
   26591 H6        1092.7847 -1238.9210  -797.9155 H6            1 RES     
   26592 H6        1093.0746 -1240.2753  -800.6664 H6            1 RES     
   26593 H6        1093.2694 -1238.5384  -800.2866 H6            1 RES     
   26594 H6        1095.1749 -1240.7576  -799.3371 H6            1 RES     
   26595 H6        1095.4186 -1239.4427  -800.5354 H6            1 RES     
   26596 H6        1094.8994 -1237.7841  -798.5034 H6            1 RES     
   26597 H6        1095.0877 -1239.2705  -797.5153 H6            1 RES     
   26598 H6        1097.4450 -1239.5376  -798.4747 H6            1 RES     
   26599 H6        1097.1317 -1238.1481  -797.3744 H6            1 RES     
   26600 H6        1097.1597 -1237.8635  -800.4369 H6            1 RES     
   26601 H6        1096.8241 -1236.5806  -799.2111 H6            1 RES     
   26602 H6        1099.0858 -1236.9648  -798.2138 H6            1 RES     
   26603 H6        1099.4464 -1238.1587  -799.5426 H6            1 RES     
   26604 H6        1098.8908 -1236.2609  -801.1866 H6            1 RES     
   26605 H6        1098.8088 -1235.1392  -799.7858 H6            1 RES     
   26606 H6        1101.2694 -1236.6882  -800.8809 H6            1 RES     
   26607 H6        1100.8613 -1234.9555  -801.0464 H6            1 RES     
   26608 H6        1101.1688 -1234.6558  -798.5339 H6            1 RES     
   26609 H6        1102.5833 -1235.0370  -799.5451 H6            1 RES     
   26610 H6        1101.1305 -1237.0522  -797.7814 H6            1 RES     
   26611 H6        1102.4988 -1237.4764  -798.8449 H6            1 RES     
   26612 H6        1102.9240 -1237.1999  -796.3722 H6            1 RES     
   26613 H6        1102.6040 -1235.4513  -796.4945 H6            1 RES     
   26614 H6        1105.0157 -1236.1110  -796.3804 H6            1 RES     
   26615 H6        1104.8527 -1237.1432  -797.8341 H6            1 RES     
   26616 H6        1106.0929 -1235.0657  -798.2675 H6            1 RES     
   26617 H6        1104.6401 -1235.1270  -799.2700 H6            1 RES     
   26618 H6        1104.9771 -1233.5463  -796.6261 H6            1 RES     
   26619 H6        1104.9973 -1232.8576  -798.2941 H6            1 RES     
   26620 H6        1103.4756 -1233.5549  -797.6371 H6            1 RES     
   26621 C0        1090.6159 -1253.8206  -796.9653 C0            1 RES     
   26622 C1        1089.7793 -1252.5252  -796.9177 C1            1 RES     
   26623 C1        1088.3530 -1252.7062  -797.2583 C1            1 RES     
   26624 S2        1087.8594 -1251.1948  -798.1009 S2            1 RES     
   26625 C1        1089.0432 -1250.4153  -796.9806 C1            1 RES     
   26626 C1        1090.0768 -1251.2629  -796.6287 C1            1 RES     
   26627 C1        1088.4253 -1254.0028  -797.9152 C1            1 RES     
   26628 C1        1089.6121 -1254.6571  -797.7540 C1            1 RES     
   26629 C1        1089.6083 -1255.9385  -798.3341 C1            1 RES     
   26630 C1        1088.3498 -1256.2473  -798.9037 C1            1 RES     
   26631 S2        1087.2907 -1254.9388  -798.6786 S2            1 RES     
   26632 H3        1091.0297 -1250.8914  -796.2891 H3            1 RES     
   26633 H3        1090.4580 -1256.6098  -798.3275 H3            1 RES     
   26634 N4        1088.9470 -1258.2864  -800.1495 N4            1 RES     
   26635 C1        1088.6696 -1259.4124  -800.8719 C1            1 RES     
   26636 C1        1087.3474 -1259.8206  -801.0856 C1            1 RES     
   26637 C1        1086.3241 -1259.0540  -800.5423 C1            1 RES     
   26638 N4        1085.0100 -1259.3625  -800.6664 N4            1 RES     
   26639 S2        1084.2817 -1258.1370  -799.8326 S2            1 RES     
   26640 N4        1085.5473 -1257.2084  -799.3176 N4            1 RES     
   26641 C1        1086.6257 -1257.8746  -799.8085 C1            1 RES     
   26642 C1        1087.9708 -1257.4915  -799.6177 C1            1 RES     
   26643 H5        1089.4804 -1259.9942  -801.2908 H5            1 RES     
   26644 C0        1090.7606 -1254.4271  -795.5317 C0            1 RES     
   26645 C0        1091.5723 -1253.5514  -794.5719 C0            1 RES     
   26646 C0        1091.6257 -1254.0154  -793.1130 C0            1 RES     
   26647 C0        1090.2773 -1254.0669  -792.3772 C0            1 RES     
   26648 C0        1089.4166 -1252.8038  -792.5849 C0            1 RES     
   26649 C0        1088.2245 -1252.7527  -791.6216 C0            1 RES     
   26650 C0        1088.6658 -1252.2626  -790.2336 C0            1 RES     
   26651 C0        1087.5046 -1252.2656  -789.2386 C0            1 RES     
   26652 C0        1087.9151 -1251.5686  -787.9378 C0            1 RES     
   26653 C0        1086.9662 -1251.7474  -786.7359 C0            1 RES     
   26654 C0        1085.4990 -1251.2995  -786.8911 C0            1 RES     
   26655 C0        1084.6084 -1252.3300  -787.6208 C0            1 RES     
   26656 C0        1083.1193 -1251.9471  -787.7341 C0            1 RES     
   26657 C0        1082.2216 -1252.2007  -786.4991 C0            1 RES     
   26658 C0        1082.4719 -1251.3732  -785.2297 C0            1 RES     
   26659 C0        1082.4016 -1249.8679  -785.4794 C0            1 RES     
   26660 H6        1089.7390 -1254.5431  -795.1118 H6            1 RES     
   26661 H6        1091.2160 -1255.4400  -795.5844 H6            1 RES     
   26662 H6        1092.6047 -1253.5409  -794.9177 H6            1 RES     
   26663 H6        1091.1866 -1252.5152  -794.5770 H6            1 RES     
   26664 H6        1092.1210 -1255.0076  -793.0365 H6            1 RES     
   26665 H6        1092.2677 -1253.2779  -792.5808 H6            1 RES     
   26666 H6        1089.6867 -1254.9462  -792.7145 H6            1 RES     
   26667 H6        1090.5193 -1254.2193  -791.3052 H6            1 RES     
   26668 H6        1090.0127 -1251.8719  -792.4715 H6            1 RES     
   26669 H6        1089.0277 -1252.8351  -793.6252 H6            1 RES     
   26670 H6        1087.7255 -1253.7462  -791.5810 H6            1 RES     
   26671 H6        1087.4893 -1252.0125  -792.0070 H6            1 RES     
   26672 H6        1089.4780 -1252.8958  -789.8203 H6            1 RES     
   26673 H6        1089.0532 -1251.2251  -790.3492 H6            1 RES     
   26674 H6        1086.6590 -1251.7037  -789.6843 H6            1 RES     
   26675 H6        1087.2168 -1253.3220  -789.0444 H6            1 RES     
   26676 H6        1088.8989 -1251.9701  -787.6078 H6            1 RES     
   26677 H6        1088.0480 -1250.4846  -788.1530 H6            1 RES     
   26678 H6        1086.9870 -1252.7997  -786.3791 H6            1 RES     
   26679 H6        1087.4150 -1251.1228  -785.9312 H6            1 RES     
   26680 H6        1085.4470 -1250.2961  -787.3664 H6            1 RES     
   26681 H6        1085.1273 -1251.1989  -785.8643 H6            1 RES     
   26682 H6        1084.9620 -1252.4198  -788.6573 H6            1 RES     
   26683 H6        1084.6941 -1253.3353  -787.1542 H6            1 RES     
   26684 H6        1082.6958 -1252.6156  -788.5172 H6            1 RES     
   26685 H6        1083.0160 -1250.9094  -788.1152 H6            1 RES     
   26686 H6        1081.1762 -1251.9968  -786.8197 H6            1 RES     
   26687 H6        1082.2793 -1253.2779  -786.2289 H6            1 RES     
   26688 H6        1081.6867 -1251.6411  -784.4901 H6            1 RES     
   26689 H6        1083.4315 -1251.6475  -784.7587 H6            1 RES     
   26690 H6        1081.4114 -1249.5946  -785.9013 H6            1 RES     
   26691 H6        1082.5425 -1249.3276  -784.5199 H6            1 RES     
   26692 H6        1083.1987 -1249.5440  -786.1792 H6            1 RES     
   26693 C0        1091.9788 -1253.7307  -797.7687 C0            1 RES     
   26694 C0        1092.8010 -1252.4376  -797.5460 C0            1 RES     
   26695 C0        1094.2162 -1252.3736  -798.1603 C0            1 RES     
   26696 C0        1095.3502 -1253.1382  -797.4335 C0            1 RES     
   26697 C0        1095.4012 -1252.8305  -795.9224 C0            1 RES     
   26698 C0        1096.7080 -1253.2188  -795.2158 C0            1 RES     
   26699 C0        1097.8076 -1252.1689  -795.4451 C0            1 RES     
   26700 C0        1099.0853 -1252.5060  -794.6625 C0            1 RES     
   26701 C0        1100.0929 -1251.3527  -794.7579 C0            1 RES     
   26702 C0        1101.5261 -1251.6370  -794.2589 C0            1 RES     
   26703 C0        1101.7436 -1251.9864  -792.7712 C0            1 RES     
   26704 C0        1101.4186 -1253.4502  -792.4095 C0            1 RES     
   26705 C0        1101.7229 -1253.8461  -790.9488 C0            1 RES     
   26706 C0        1103.1891 -1254.1969  -790.5925 C0            1 RES     
   26707 C0        1104.2431 -1253.0796  -790.6290 C0            1 RES     
   26708 C0        1103.8896 -1251.9001  -789.7253 C0            1 RES     
   26709 H6        1092.5815 -1254.6340  -797.5312 H6            1 RES     
   26710 H6        1091.7756 -1253.7554  -798.8629 H6            1 RES     
   26711 H6        1092.2278 -1251.6314  -798.0487 H6            1 RES     
   26712 H6        1092.8888 -1252.1607  -796.4870 H6            1 RES     
   26713 H6        1094.1886 -1252.6528  -799.2354 H6            1 RES     
   26714 H6        1094.5120 -1251.3017  -798.1089 H6            1 RES     
   26715 H6        1095.2581 -1254.2369  -797.5747 H6            1 RES     
   26716 H6        1096.2956 -1252.8117  -797.9163 H6            1 RES     
   26717 H6        1095.2024 -1251.7555  -795.7166 H6            1 RES     
   26718 H6        1094.6019 -1253.4280  -795.4645 H6            1 RES     
   26719 H6        1097.0275 -1254.2420  -795.5120 H6            1 RES     
   26720 H6        1096.5036 -1253.2244  -794.1230 H6            1 RES     
   26721 H6        1098.0472 -1252.0816  -796.5256 H6            1 RES     
   26722 H6        1097.4234 -1251.1869  -795.0863 H6            1 RES     
   26723 H6        1098.8089 -1252.6455  -793.5996 H6            1 RES     
   26724 H6        1099.5206 -1253.4404  -795.0770 H6            1 RES     
   26725 H6        1100.2002 -1251.0774  -795.8304 H6            1 RES     
   26726 H6        1099.6786 -1250.4692  -794.2225 H6            1 RES     
   26727 H6        1102.0080 -1252.4132  -794.8916 H6            1 RES     
   26728 H6        1102.0749 -1250.6852  -794.4382 H6            1 RES     
   26729 H6        1101.1954 -1251.2723  -792.1191 H6            1 RES     
   26730 H6        1102.8161 -1251.8278  -792.6023 H6            1 RES     
   26731 H6        1100.3363 -1253.5965  -792.5328 H6            1 RES     
   26732 H6        1101.9341 -1254.1575  -793.0945 H6            1 RES     
   26733 H6        1101.1700 -1254.7965  -790.7752 H6            1 RES     
   26734 H6        1101.2948 -1253.0993  -790.2471 H6            1 RES     
   26735 H6        1103.1773 -1254.5959  -789.5540 H6            1 RES     
   26736 H6        1103.5318 -1255.0201  -791.2569 H6            1 RES     
   26737 H6        1105.2056 -1253.5105  -790.2765 H6            1 RES     
   26738 H6        1104.4287 -1252.7391  -791.6624 H6            1 RES     
   26739 H6        1103.7610 -1252.2444  -788.6771 H6            1 RES     
   26740 H6        1104.7098 -1251.1525  -789.7562 H6            1 RES     
   26741 H6        1102.9566 -1251.4062  -790.0654 H6            1 RES     
   26742 C0        1087.6768 -1264.8081  -802.8496 C0            1 RES     
   26743 C1        1087.1896 -1263.3726  -802.5628 C1            1 RES     
   26744 C1        1086.0957 -1262.9115  -803.4423 C1            1 RES     
   26745 S2        1086.3699 -1261.1483  -803.6749 S2            1 RES     
   26746 C1        1086.9999 -1261.2218  -801.9832 C1            1 RES     
   26747 C1        1087.5520 -1262.4515  -801.6765 C1            1 RES     
   26748 C1        1086.2193 -1263.8896  -804.5129 C1            1 RES     
   26749 C1        1087.0313 -1264.9483  -804.2255 C1            1 RES     
   26750 C1        1087.0560 -1265.9078  -805.2536 C1            1 RES     
   26751 C1        1086.1903 -1265.5534  -806.3161 C1            1 RES     
   26752 S2        1085.4303 -1264.0774  -805.9580 S2            1 RES     
   26753 H3        1088.2781 -1262.5711  -800.8892 H3            1 RES     
   26754 H3        1087.6499 -1266.8128  -805.2246 H3            1 RES     
   26755 N4        1086.9005 -1267.2056  -807.9991 N4            1 RES     
   26756 C1        1086.7890 -1267.8861  -809.1785 C1            1 RES     
   26757 C1        1085.6793 -1267.7011  -810.0121 C1            1 RES     
   26758 C1        1084.6924 -1266.8104  -809.6088 C1            1 RES     
   26759 N4        1083.5662 -1266.5665  -810.3228 N4            1 RES     
   26760 S2        1082.7823 -1265.4638  -809.3757 S2            1 RES     
   26761 N4        1083.8008 -1265.2573  -808.0914 N4            1 RES     
   26762 C1        1084.8294 -1266.0948  -808.3883 C1            1 RES     
   26763 C1        1085.9649 -1266.3037  -807.5762 C1            1 RES     
   26764 H5        1087.5705 -1268.5727  -809.4775 H5            1 RES     
   26765 C0        1086.9972 -1265.8186  -801.8692 C0            1 RES     
   26766 C0        1087.4041 -1265.6241  -800.4052 C0            1 RES     
   26767 C0        1086.6620 -1266.4830  -799.3764 C0            1 RES     
   26768 C0        1085.1453 -1266.2528  -799.2816 C0            1 RES     
   26769 C0        1084.7533 -1264.7619  -799.2286 C0            1 RES     
   26770 C0        1083.2817 -1264.5651  -798.8448 C0            1 RES     
   26771 C0        1083.0915 -1264.7020  -797.3260 C0            1 RES     
   26772 C0        1081.6207 -1264.5736  -796.9277 C0            1 RES     
   26773 C0        1081.4860 -1264.4909  -795.4041 C0            1 RES     
   26774 C0        1080.0638 -1264.6562  -794.8321 C0            1 RES     
   26775 C0        1078.9686 -1263.6793  -795.3049 C0            1 RES     
   26776 C0        1078.3542 -1264.0495  -796.6735 C0            1 RES     
   26777 C0        1077.2075 -1263.1344  -797.1473 C0            1 RES     
   26778 C0        1075.7988 -1263.3942  -796.5611 C0            1 RES     
   26779 C0        1075.5674 -1263.1284  -795.0663 C0            1 RES     
   26780 C0        1075.9196 -1261.6998  -794.6563 C0            1 RES     
   26781 H6        1085.8989 -1265.6718  -801.9441 H6            1 RES     
   26782 H6        1087.2153 -1266.8640  -802.1789 H6            1 RES     
   26783 H6        1088.4556 -1265.8899  -800.3100 H6            1 RES     
   26784 H6        1087.2779 -1264.5666  -800.1080 H6            1 RES     
   26785 H6        1086.8565 -1267.5626  -799.5557 H6            1 RES     
   26786 H6        1087.1009 -1266.2226  -798.3871 H6            1 RES     
   26787 H6        1084.6296 -1266.7145  -800.1515 H6            1 RES     
   26788 H6        1084.8103 -1266.7913  -798.3713 H6            1 RES     
   26789 H6        1085.3910 -1264.1897  -798.5197 H6            1 RES     
   26790 H6        1084.9115 -1264.3412  -800.2448 H6            1 RES     
   26791 H6        1082.6415 -1265.2724  -799.4172 H6            1 RES     
   26792 H6        1082.9803 -1263.5295  -799.1162 H6            1 RES     
   26793 H6        1083.4663 -1265.6794  -796.9578 H6            1 RES     
   26794 H6        1083.6804 -1263.8930  -796.8377 H6            1 RES     
   26795 H6        1081.2189 -1263.6374  -797.3654 H6            1 RES     
   26796 H6        1081.0757 -1265.4588  -797.3228 H6            1 RES     
   26797 H6        1082.0927 -1265.3018  -794.9434 H6            1 RES     
   26798 H6        1081.9137 -1263.5186  -795.0712 H6            1 RES     
   26799 H6        1079.7063 -1265.6983  -794.9783 H6            1 RES     
   26800 H6        1080.1851 -1264.5053  -793.7360 H6            1 RES     
   26801 H6        1079.3467 -1262.6342  -795.2890 H6            1 RES     
   26802 H6        1078.1790 -1263.7570  -794.5480 H6            1 RES     
   26803 H6        1079.1351 -1263.9527  -797.4404 H6            1 RES     
   26804 H6        1078.0088 -1265.1060  -796.6850 H6            1 RES     
   26805 H6        1077.0890 -1263.3396  -798.2351 H6            1 RES     
   26806 H6        1077.5032 -1262.0679  -797.0576 H6            1 RES     
   26807 H6        1075.0964 -1262.7381  -797.1209 H6            1 RES     
   26808 H6        1075.5094 -1264.4462  -796.7761 H6            1 RES     
   26809 H6        1074.4891 -1263.2961  -794.8551 H6            1 RES     
   26810 H6        1076.1107 -1263.8597  -794.4433 H6            1 RES     
   26811 H6        1075.3264 -1260.9727  -795.2502 H6            1 RES     
   26812 H6        1075.6867 -1261.5565  -793.5803 H6            1 RES     
   26813 H6        1076.9999 -1261.4987  -794.8062 H6            1 RES     
   26814 C0        1089.2456 -1264.9898  -802.9787 C0            1 RES     
   26815 C0        1090.0950 -1264.2134  -801.9426 C0            1 RES     
   26816 C0        1091.6133 -1264.4927  -801.9072 C0            1 RES     
   26817 C0        1092.0883 -1265.7959  -801.2181 C0            1 RES     
   26818 C0        1091.4694 -1265.9876  -799.8178 C0            1 RES     
   26819 C0        1092.1751 -1267.0157  -798.9218 C0            1 RES     
   26820 C0        1093.4309 -1266.4223  -798.2623 C0            1 RES     
   26821 C0        1094.0855 -1267.4169  -797.2923 C0            1 RES     
   26822 C0        1095.2186 -1266.7381  -796.5114 C0            1 RES     
   26823 C0        1096.1522 -1267.6593  -795.6967 C0            1 RES     
   26824 C0        1095.5591 -1268.4853  -794.5354 C0            1 RES     
   26825 C0        1094.8230 -1269.7659  -794.9792 C0            1 RES     
   26826 C0        1094.3081 -1270.6567  -793.8284 C0            1 RES     
   26827 C0        1095.3253 -1271.6067  -793.1482 C0            1 RES     
   26828 C0        1096.4629 -1270.9939  -792.3170 C0            1 RES     
   26829 C0        1095.9577 -1270.0892  -791.1949 C0            1 RES     
   26830 H6        1089.4724 -1266.0774  -802.9476 H6            1 RES     
   26831 H6        1089.5899 -1264.6152  -803.9688 H6            1 RES     
   26832 H6        1090.0014 -1263.1441  -802.2237 H6            1 RES     
   26833 H6        1089.7179 -1264.3126  -800.9161 H6            1 RES     
   26834 H6        1092.0493 -1264.4126  -802.9260 H6            1 RES     
   26835 H6        1092.0507 -1263.6691  -801.2993 H6            1 RES     
   26836 H6        1091.8630 -1266.6911  -801.8374 H6            1 RES     
   26837 H6        1093.1923 -1265.7105  -801.1333 H6            1 RES     
   26838 H6        1091.4099 -1265.0262  -799.2614 H6            1 RES     
   26839 H6        1090.4495 -1266.3583  -799.9855 H6            1 RES     
   26840 H6        1092.3913 -1267.9488  -799.4869 H6            1 RES     
   26841 H6        1091.4766 -1267.2677  -798.0945 H6            1 RES     
   26842 H6        1094.1697 -1266.1145  -799.0318 H6            1 RES     
   26843 H6        1093.1216 -1265.5204  -797.6866 H6            1 RES     
   26844 H6        1093.3134 -1267.7521  -796.5731 H6            1 RES     
   26845 H6        1094.4746 -1268.2791  -797.8751 H6            1 RES     
   26846 H6        1095.8768 -1266.2183  -797.2422 H6            1 RES     
   26847 H6        1094.7797 -1265.9641  -795.8426 H6            1 RES     
   26848 H6        1096.7163 -1268.3345  -796.3756 H6            1 RES     
   26849 H6        1096.8932 -1266.9662  -795.2387 H6            1 RES     
   26850 H6        1094.9169 -1267.8464  -793.8911 H6            1 RES     
   26851 H6        1096.4278 -1268.7864  -793.9365 H6            1 RES     
   26852 H6        1093.9265 -1269.4637  -795.5387 H6            1 RES     
   26853 H6        1095.4543 -1270.3771  -795.6597 H6            1 RES     
   26854 H6        1093.5666 -1271.3453  -794.2920 H6            1 RES     
   26855 H6        1093.7514 -1270.0474  -793.0853 H6            1 RES     
   26856 H6        1094.7410 -1272.2605  -792.4634 H6            1 RES     
   26857 H6        1095.7762 -1272.2633  -793.9241 H6            1 RES     
   26858 H6        1097.0349 -1271.8296  -791.8578 H6            1 RES     
   26859 H6        1097.1822 -1270.4567  -792.9591 H6            1 RES     
   26860 H6        1095.2795 -1270.6549  -790.5213 H6            1 RES     
   26861 H6        1096.8205 -1269.7192  -790.6021 H6            1 RES     
   26862 H6        1095.4174 -1269.2123  -791.6061 H6            1 RES     
   26863 C0        1085.8340 -1271.7070  -813.4797 C0            1 RES     
   26864 C1        1085.5591 -1270.3457  -812.8076 C1            1 RES     
   26865 C1        1085.1324 -1269.2801  -813.7379 C1            1 RES     
   26866 S2        1085.8217 -1267.7546  -813.0780 S2            1 RES     
   26867 C1        1085.5381 -1268.5475  -811.4796 C1            1 RES     
   26868 C1        1085.6250 -1269.9254  -811.5489 C1            1 RES     
   26869 C1        1085.5597 -1269.8740  -814.9960 C1            1 RES     
   26870 C1        1085.9117 -1271.1900  -814.9136 C1            1 RES     
   26871 C1        1086.2376 -1271.7439  -816.1648 C1            1 RES     
   26872 C1        1086.0731 -1270.8020  -817.2087 C1            1 RES     
   26873 S2        1085.5383 -1269.3263  -816.5600 S2            1 RES     
   26874 H3        1085.8472 -1270.5279  -810.6835 H3            1 RES     
   26875 H3        1086.5562 -1272.7686  -816.3102 H3            1 RES     
   26876 N4        1087.1644 -1272.0250  -819.0472 N4            1 RES     
   26877 C1        1087.5003 -1272.2381  -820.3542 C1            1 RES     
   26878 C1        1086.9845 -1271.4242  -821.3699 C1            1 RES     
   26879 C1        1086.1198 -1270.3960  -821.0164 C1            1 RES     
   26880 N4        1085.5440 -1269.5592  -821.9142 N4            1 RES     
   26881 S2        1084.6345 -1268.5779  -820.9460 S2            1 RES     
   26882 N4        1084.9330 -1269.1455  -819.4235 N4            1 RES     
   26883 C1        1085.7929 -1270.1733  -819.6511 C1            1 RES     
   26884 C1        1086.3364 -1271.0114  -818.6538 C1            1 RES     
   26885 H5        1088.1790 -1273.0418  -820.6093 H5            1 RES     
   26886 C0        1084.5866 -1272.6400  -813.3476 C0            1 RES     
   26887 C0        1084.2729 -1273.0477  -811.9046 C0            1 RES     
   26888 C0        1082.9784 -1273.8382  -811.6906 C0            1 RES     
   26889 C0        1081.6788 -1273.1092  -812.0675 C0            1 RES     
   26890 C0        1081.6080 -1271.6649  -811.5305 C0            1 RES     
   26891 C0        1080.2024 -1271.0669  -811.6660 C0            1 RES     
   26892 C0        1079.2867 -1271.5654  -810.5370 C0            1 RES     
   26893 C0        1077.8616 -1271.0324  -810.6895 C0            1 RES     
   26894 C0        1077.0339 -1271.3587  -809.4425 C0            1 RES     
   26895 C0        1075.5102 -1271.1539  -809.5587 C0            1 RES     
   26896 C0        1074.9884 -1269.7522  -809.9329 C0            1 RES     
   26897 C0        1075.0444 -1269.4518  -811.4475 C0            1 RES     
   26898 C0        1074.4669 -1268.0855  -811.8676 C0            1 RES     
   26899 C0        1072.9296 -1267.9733  -812.0075 C0            1 RES     
   26900 C0        1072.0685 -1268.0941  -810.7416 C0            1 RES     
   26901 C0        1072.4522 -1267.0816  -809.6642 C0            1 RES     
   26902 H6        1083.7103 -1272.0873  -813.7477 H6            1 RES     
   26903 H6        1084.7179 -1273.5518  -813.9703 H6            1 RES     
   26904 H6        1085.0763 -1273.6944  -811.5555 H6            1 RES     
   26905 H6        1084.2286 -1272.1552  -811.2536 H6            1 RES     
   26906 H6        1083.0205 -1274.8100  -812.2286 H6            1 RES     
   26907 H6        1082.9320 -1274.0598  -810.6007 H6            1 RES     
   26908 H6        1081.5631 -1273.0726  -813.1725 H6            1 RES     
   26909 H6        1080.8519 -1273.7305  -811.6662 H6            1 RES     
   26910 H6        1081.9266 -1271.6011  -810.4670 H6            1 RES     
   26911 H6        1082.3111 -1271.0519  -812.1342 H6            1 RES     
   26912 H6        1079.7901 -1271.2893  -812.6751 H6            1 RES     
   26913 H6        1080.2756 -1269.9623  -811.5587 H6            1 RES     
   26914 H6        1079.2414 -1272.6740  -810.5126 H6            1 RES     
   26915 H6        1079.7151 -1271.2098  -809.5728 H6            1 RES     
   26916 H6        1077.9089 -1269.9300  -810.7988 H6            1 RES     
   26917 H6        1077.4114 -1271.4989  -811.5929 H6            1 RES     
   26918 H6        1077.1754 -1272.4320  -809.1858 H6            1 RES     
   26919 H6        1077.4303 -1270.7541  -808.5961 H6            1 RES     
   26920 H6        1075.0711 -1271.9007  -810.2549 H6            1 RES     
   26921 H6        1075.1194 -1271.3876  -808.5430 H6            1 RES     
   26922 H6        1075.5080 -1268.9718  -809.3358 H6            1 RES     
   26923 H6        1073.9351 -1269.7553  -809.6278 H6            1 RES     
   26924 H6        1076.0988 -1269.4257  -811.7559 H6            1 RES     
   26925 H6        1074.5484 -1270.2555  -812.0339 H6            1 RES     
   26926 H6        1074.8456 -1267.9032  -812.8986 H6            1 RES     
   26927 H6        1074.8849 -1267.2779  -811.2304 H6            1 RES     
   26928 H6        1072.7234 -1266.9725  -812.4471 H6            1 RES     
   26929 H6        1072.5798 -1268.7335  -812.7399 H6            1 RES     
   26930 H6        1071.0114 -1267.9108  -811.0319 H6            1 RES     
   26931 H6        1072.0936 -1269.1217  -810.3399 H6            1 RES     
   26932 H6        1072.3697 -1266.0481  -810.0619 H6            1 RES     
   26933 H6        1071.7663 -1267.1868  -808.7977 H6            1 RES     
   26934 H6        1073.4883 -1267.2542  -809.3082 H6            1 RES     
   26935 C0        1087.2040 -1272.4021  -813.0915 C0            1 RES     
   26936 C0        1087.5873 -1272.3316  -811.5929 C0            1 RES     
   26937 C0        1088.8163 -1273.1429  -811.1286 C0            1 RES     
   26938 C0        1088.6400 -1274.6702  -810.9411 C0            1 RES     
   26939 C0        1087.4032 -1275.0258  -810.0900 C0            1 RES     
   26940 C0        1087.3791 -1276.4553  -809.5297 C0            1 RES     
   26941 C0        1088.2549 -1276.5838  -808.2725 C0            1 RES     
   26942 C0        1088.1581 -1277.9868  -807.6553 C0            1 RES     
   26943 C0        1088.8874 -1278.0308  -806.3060 C0            1 RES     
   26944 C0        1089.1181 -1279.4251  -805.6841 C0            1 RES     
   26945 C0        1087.8942 -1280.2800  -805.2920 C0            1 RES     
   26946 C0        1087.2267 -1281.0117  -806.4744 C0            1 RES     
   26947 C0        1086.0621 -1281.9492  -806.0900 C0            1 RES     
   26948 C0        1086.4232 -1283.3599  -805.5613 C0            1 RES     
   26949 C0        1087.1194 -1283.4787  -804.1969 C0            1 RES     
   26950 C0        1086.3263 -1282.8256  -803.0667 C0            1 RES     
   26951 H6        1087.1717 -1273.4547  -813.4470 H6            1 RES     
   26952 H6        1088.0452 -1271.9055  -813.6253 H6            1 RES     
   26953 H6        1087.8496 -1271.2702  -811.4034 H6            1 RES     
   26954 H6        1086.7542 -1272.5838  -810.9234 H6            1 RES     
   26955 H6        1089.6924 -1272.9315  -811.7784 H6            1 RES     
   26956 H6        1089.0607 -1272.7542  -810.1146 H6            1 RES     
   26957 H6        1088.5689 -1275.1963  -811.9177 H6            1 RES     
   26958 H6        1089.5617 -1275.0228  -810.4316 H6            1 RES     
   26959 H6        1087.2734 -1274.3188  -809.2411 H6            1 RES     
   26960 H6        1086.5377 -1274.9316  -810.7592 H6            1 RES     
   26961 H6        1087.6528 -1277.1919  -810.3166 H6            1 RES     
   26962 H6        1086.3363 -1276.6664  -809.2076 H6            1 RES     
   26963 H6        1089.3154 -1276.3552  -808.5083 H6            1 RES     
   26964 H6        1087.8903 -1275.8438  -807.5242 H6            1 RES     
   26965 H6        1087.0878 -1278.2127  -807.4849 H6            1 RES     
   26966 H6        1088.6022 -1278.7187  -808.3634 H6            1 RES     
   26967 H6        1089.9017 -1277.5968  -806.4487 H6            1 RES     
   26968 H6        1088.3424 -1277.3839  -805.5824 H6            1 RES     
   26969 H6        1089.7945 -1280.0275  -806.3282 H6            1 RES     
   26970 H6        1089.6688 -1279.2183  -804.7390 H6            1 RES     
   26971 H6        1087.1605 -1279.6710  -804.7207 H6            1 RES     
   26972 H6        1088.2933 -1281.0394  -804.6079 H6            1 RES     
   26973 H6        1086.7852 -1280.2528  -807.1355 H6            1 RES     
   26974 H6        1087.9738 -1281.5816  -807.0679 H6            1 RES     
   26975 H6        1085.5147 -1282.1502  -807.0382 H6            1 RES     
   26976 H6        1085.3487 -1281.4266  -805.4184 H6            1 RES     
   26977 H6        1085.4681 -1283.9257  -805.4869 H6            1 RES     
   26978 H6        1087.0525 -1283.8759  -806.3190 H6            1 RES     
   26979 H6        1087.2271 -1284.5608  -803.9647 H6            1 RES     
   26980 H6        1088.1470 -1283.0778  -804.2364 H6            1 RES     
   26981 H6        1085.3133 -1283.2759  -802.9982 H6            1 RES     
   26982 H6        1086.8539 -1282.9882  -802.1034 H6            1 RES     
   26983 H6        1086.2309 -1281.7327  -803.2299 H6            1 RES     
   26984 C0        1087.9950 -1273.9978  -825.8922 C0            1 RES     
   26985 C1        1087.7032 -1272.8930  -824.8556 C1            1 RES     
   26986 C1        1087.9900 -1271.5222  -825.3265 C1            1 RES     
   26987 S2        1088.5617 -1270.6208  -823.8779 S2            1 RES     
   26988 C1        1087.4004 -1271.6882  -822.9970 C1            1 RES     
   26989 C1        1087.2397 -1272.9164  -823.6106 C1            1 RES     
   26990 C1        1088.8418 -1271.8323  -826.4650 C1            1 RES     
   26991 C1        1088.8477 -1273.1474  -826.8299 C1            1 RES     
   26992 C1        1089.6172 -1273.3872  -827.9826 C1            1 RES     
   26993 C1        1090.1587 -1272.1880  -828.5045 C1            1 RES     
   26994 S2        1089.6778 -1270.8804  -827.5333 S2            1 RES     
   26995 H3        1086.8990 -1273.7845  -823.0705 H3            1 RES     
   26996 H3        1089.7601 -1274.3658  -828.4238 H3            1 RES     
   26997 N4        1091.7343 -1273.1253  -830.1495 N4            1 RES     
   26998 C1        1092.6054 -1273.0514  -831.1994 C1            1 RES     
   26999 C1        1092.8076 -1271.8451  -831.8809 C1            1 RES     
   27000 C1        1092.0982 -1270.7254  -831.4652 C1            1 RES     
   27001 N4        1092.1972 -1269.5119  -832.0612 N4            1 RES     
   27002 S2        1091.1463 -1268.5982  -831.1732 S2            1 RES     
   27003 N4        1090.5636 -1269.6567  -830.0466 N4            1 RES     
   27004 C1        1091.2088 -1270.8113  -830.3597 C1            1 RES     
   27005 C1        1091.0344 -1272.0436  -829.6937 C1            1 RES     
   27006 H5        1093.1522 -1273.9338  -831.5057 H5            1 RES     
   27007 C0        1086.6819 -1274.4054  -826.6363 C0            1 RES     
   27008 C0        1085.6440 -1275.0758  -825.7306 C0            1 RES     
   27009 C0        1084.2790 -1275.3644  -826.3633 C0            1 RES     
   27010 C0        1083.4881 -1274.1351  -826.8383 C0            1 RES     
   27011 C0        1083.4519 -1272.9917  -825.8036 C0            1 RES     
   27012 C0        1082.4292 -1271.9105  -826.1735 C0            1 RES     
   27013 C0        1081.0082 -1272.3489  -825.7862 C0            1 RES     
   27014 C0        1079.9642 -1271.3130  -826.2050 C0            1 RES     
   27015 C0        1078.5956 -1271.6661  -825.6144 C0            1 RES     
   27016 C0        1077.3861 -1270.8948  -826.1793 C0            1 RES     
   27017 C0        1077.3909 -1269.3561  -826.0812 C0            1 RES     
   27018 C0        1078.2214 -1268.6654  -827.1860 C0            1 RES     
   27019 C0        1078.1937 -1267.1241  -827.1614 C0            1 RES     
   27020 C0        1076.9658 -1266.4226  -827.7903 C0            1 RES     
   27021 C0        1075.5994 -1266.5877  -827.1086 C0            1 RES     
   27022 C0        1075.6101 -1266.1507  -825.6450 C0            1 RES     
   27023 H6        1086.2302 -1273.4795  -827.0513 H6            1 RES     
   27024 H6        1086.9145 -1275.0753  -827.4926 H6            1 RES     
   27025 H6        1086.0393 -1276.0430  -825.4245 H6            1 RES     
   27026 H6        1085.4685 -1274.4630  -824.8272 H6            1 RES     
   27027 H6        1084.3832 -1276.0796  -827.2078 H6            1 RES     
   27028 H6        1083.6751 -1275.8640  -825.5728 H6            1 RES     
   27029 H6        1083.9244 -1273.7352  -827.7793 H6            1 RES     
   27030 H6        1082.4670 -1274.5001  -827.0732 H6            1 RES     
   27031 H6        1083.2287 -1273.3647  -824.7801 H6            1 RES     
   27032 H6        1084.4620 -1272.5293  -825.7850 H6            1 RES     
   27033 H6        1082.5152 -1271.6593  -827.2539 H6            1 RES     
   27034 H6        1082.6556 -1270.9932  -825.5867 H6            1 RES     
   27035 H6        1080.7419 -1273.3186  -826.2555 H6            1 RES     
   27036 H6        1080.9833 -1272.4751  -824.6802 H6            1 RES     
   27037 H6        1080.2716 -1270.3244  -825.8078 H6            1 RES     
   27038 H6        1079.9198 -1271.2947  -827.3159 H6            1 RES     
   27039 H6        1078.3852 -1272.7413  -825.8084 H6            1 RES     
   27040 H6        1078.6481 -1271.5261  -824.5114 H6            1 RES     
   27041 H6        1077.1974 -1271.1891  -827.2342 H6            1 RES     
   27042 H6        1076.5202 -1271.2576  -825.5812 H6            1 RES     
   27043 H6        1077.7024 -1269.0323  -825.0645 H6            1 RES     
   27044 H6        1076.3423 -1269.0642  -826.2145 H6            1 RES     
   27045 H6        1079.2770 -1268.9364  -827.0452 H6            1 RES     
   27046 H6        1077.9205 -1269.0215  -828.1951 H6            1 RES     
   27047 H6        1079.0463 -1266.7979  -827.7985 H6            1 RES     
   27048 H6        1078.4042 -1266.7511  -826.1370 H6            1 RES     
   27049 H6        1077.1941 -1265.3340  -827.8024 H6            1 RES     
   27050 H6        1076.8683 -1266.7507  -828.8484 H6            1 RES     
   27051 H6        1074.8685 -1265.9543  -827.6564 H6            1 RES     
   27052 H6        1075.2289 -1267.6227  -827.2054 H6            1 RES     
   27053 H6        1075.9307 -1265.0906  -825.5632 H6            1 RES     
   27054 H6        1074.5878 -1266.2483  -825.2232 H6            1 RES     
   27055 H6        1076.2937 -1266.7862  -825.0460 H6            1 RES     
   27056 C0        1088.8475 -1275.2262  -825.3676 C0            1 RES     
   27057 C0        1088.4730 -1275.7450  -823.9575 C0            1 RES     
   27058 C0        1089.1457 -1277.0469  -823.4710 C0            1 RES     
   27059 C0        1088.6078 -1278.3867  -824.0319 C0            1 RES     
   27060 C0        1087.0723 -1278.4998  -823.9307 C0            1 RES     
   27061 C0        1086.5056 -1279.9185  -824.0857 C0            1 RES     
   27062 C0        1086.6296 -1280.7218  -822.7806 C0            1 RES     
   27063 C0        1085.9786 -1282.1073  -822.9038 C0            1 RES     
   27064 C0        1085.9495 -1282.8097  -821.5399 C0            1 RES     
   27065 C0        1085.5784 -1284.3085  -821.5361 C0            1 RES     
   27066 C0        1084.1763 -1284.7322  -822.0230 C0            1 RES     
   27067 C0        1084.0274 -1284.7866  -823.5573 C0            1 RES     
   27068 C0        1082.6638 -1285.3026  -824.0642 C0            1 RES     
   27069 C0        1082.4456 -1286.8360  -824.0969 C0            1 RES     
   27070 C0        1082.3665 -1287.5968  -822.7644 C0            1 RES     
   27071 C0        1081.2740 -1287.0632  -821.8399 C0            1 RES     
   27072 H6        1088.7849 -1276.0394  -826.1228 H6            1 RES     
   27073 H6        1089.9198 -1274.9375  -825.2905 H6            1 RES     
   27074 H6        1088.8137 -1274.9591  -823.2521 H6            1 RES     
   27075 H6        1087.3903 -1275.8607  -823.8151 H6            1 RES     
   27076 H6        1090.2479 -1276.9887  -823.5988 H6            1 RES     
   27077 H6        1088.9459 -1277.0913  -822.3768 H6            1 RES     
   27078 H6        1088.9114 -1278.5378  -825.0904 H6            1 RES     
   27079 H6        1089.0849 -1279.1846  -823.4243 H6            1 RES     
   27080 H6        1086.6929 -1278.0779  -822.9739 H6            1 RES     
   27081 H6        1086.6694 -1277.9036  -824.7601 H6            1 RES     
   27082 H6        1086.9729 -1280.4373  -824.9513 H6            1 RES     
   27083 H6        1085.4174 -1279.8191  -824.2899 H6            1 RES     
   27084 H6        1087.6951 -1280.8377  -822.4912 H6            1 RES     
   27085 H6        1086.1036 -1280.1554  -821.9787 H6            1 RES     
   27086 H6        1084.9364 -1281.9663  -823.2499 H6            1 RES     
   27087 H6        1086.5550 -1282.7074  -823.6401 H6            1 RES     
   27088 H6        1086.9709 -1282.7547  -821.1027 H6            1 RES     
   27089 H6        1085.2627 -1282.2524  -820.8641 H6            1 RES     
   27090 H6        1086.3484 -1284.8978  -822.0792 H6            1 RES     
   27091 H6        1085.6384 -1284.6051  -820.4647 H6            1 RES     
   27092 H6        1083.3933 -1284.0946  -821.5582 H6            1 RES     
   27093 H6        1084.0432 -1285.7499  -821.6353 H6            1 RES     
   27094 H6        1084.1131 -1283.7605  -823.9417 H6            1 RES     
   27095 H6        1084.8401 -1285.3880  -824.0189 H6            1 RES     
   27096 H6        1082.6091 -1285.0012  -825.1344 H6            1 RES     
   27097 H6        1081.8333 -1284.7783  -823.5458 H6            1 RES     
   27098 H6        1081.4819 -1287.0090  -824.6252 H6            1 RES     
   27099 H6        1083.2464 -1287.2985  -824.7144 H6            1 RES     
   27100 H6        1082.1371 -1288.6602  -822.9947 H6            1 RES     
   27101 H6        1083.3435 -1287.6062  -822.2511 H6            1 RES     
   27102 H6        1080.2860 -1287.1112  -822.3451 H6            1 RES     
   27103 H6        1081.2337 -1287.6830  -820.9197 H6            1 RES     
   27104 H6        1081.4830 -1286.0151  -821.5436 H6            1 RES     
   27105 C0        1095.3342 -1273.1557  -836.3524 C0            1 RES     
   27106 C1        1094.8038 -1272.3786  -835.1296 C1            1 RES     
   27107 C1        1095.5413 -1271.1340  -834.8298 C1            1 RES     
   27108 S2        1095.5139 -1270.9730  -833.0378 S2            1 RES     
   27109 C1        1093.8903 -1271.7511  -833.1881 C1            1 RES     
   27110 C1        1093.8070 -1272.5966  -834.2786 C1            1 RES     
   27111 C1        1096.7548 -1271.3837  -835.5933 C1            1 RES     
   27112 C1        1096.6784 -1272.4399  -836.4543 C1            1 RES     
   27113 C1        1097.8419 -1272.5932  -837.2296 C1            1 RES     
   27114 C1        1098.7886 -1271.5781  -836.9522 C1            1 RES     
   27115 S2        1098.1669 -1270.5336  -835.7661 S2            1 RES     
   27116 H3        1093.0880 -1273.3979  -834.3264 H3            1 RES     
   27117 H3        1097.9847 -1273.3798  -837.9601 H3            1 RES     
   27118 N4        1100.7421 -1272.4969  -838.1384 N4            1 RES     
   27119 C1        1102.0044 -1272.4405  -838.6577 C1            1 RES     
   27120 C1        1102.7383 -1271.2483  -838.6331 C1            1 RES     
   27121 C1        1102.1499 -1270.1227  -838.0703 C1            1 RES     
   27122 N4        1102.7558 -1268.9117  -838.0095 N4            1 RES     
   27123 S2        1101.6091 -1267.9824  -837.2684 S2            1 RES     
   27124 N4        1100.3653 -1269.0363  -837.0004 N4            1 RES     
   27125 C1        1100.8429 -1270.1994  -837.5167 C1            1 RES     
   27126 C1        1100.1352 -1271.4202  -837.5551 C1            1 RES     
   27127 H5        1102.4474 -1273.3293  -839.0882 H5            1 RES     
   27128 C0        1094.4860 -1272.8172  -837.6212 C0            1 RES     
   27129 C0        1093.0336 -1273.2971  -837.5366 C0            1 RES     
   27130 C0        1092.1109 -1272.8674  -838.6814 C0            1 RES     
   27131 C0        1091.8998 -1271.3531  -838.8386 C0            1 RES     
   27132 C0        1091.5967 -1270.6346  -837.5078 C0            1 RES     
   27133 C0        1091.1081 -1269.1975  -837.7257 C0            1 RES     
   27134 C0        1089.6205 -1269.1799  -838.1109 C0            1 RES     
   27135 C0        1089.1283 -1267.7606  -838.3965 C0            1 RES     
   27136 C0        1087.6050 -1267.7467  -838.5579 C0            1 RES     
   27137 C0        1086.9893 -1266.4576  -839.1376 C0            1 RES     
   27138 C0        1087.2460 -1265.1293  -838.3982 C0            1 RES     
   27139 C0        1088.6200 -1264.4971  -838.7146 C0            1 RES     
   27140 C0        1088.8845 -1263.1330  -838.0467 C0            1 RES     
   27141 C0        1088.2700 -1261.8800  -838.7160 C0            1 RES     
   27142 C0        1086.7417 -1261.7277  -838.7208 C0            1 RES     
   27143 C0        1086.1362 -1261.7766  -837.3194 C0            1 RES     
   27144 H6        1094.4778 -1271.7124  -837.7344 H6            1 RES     
   27145 H6        1094.9643 -1273.2417  -838.5308 H6            1 RES     
   27146 H6        1093.0375 -1274.3857  -837.5517 H6            1 RES     
   27147 H6        1092.5707 -1272.9577  -836.5916 H6            1 RES     
   27148 H6        1092.4646 -1273.2885  -839.6474 H6            1 RES     
   27149 H6        1091.1184 -1273.3209  -838.4609 H6            1 RES     
   27150 H6        1092.8012 -1270.8822  -839.2875 H6            1 RES     
   27151 H6        1091.0666 -1271.2336  -839.5614 H6            1 RES     
   27152 H6        1090.8436 -1271.1840  -836.9014 H6            1 RES     
   27153 H6        1092.5429 -1270.6005  -836.9264 H6            1 RES     
   27154 H6        1091.7472 -1268.6889  -838.4812 H6            1 RES     
   27155 H6        1091.2000 -1268.6428  -836.7662 H6            1 RES     
   27156 H6        1089.4281 -1269.8010  -839.0102 H6            1 RES     
   27157 H6        1089.0459 -1269.6079  -837.2586 H6            1 RES     
   27158 H6        1089.3941 -1267.1166  -837.5338 H6            1 RES     
   27159 H6        1089.6249 -1267.4011  -839.3242 H6            1 RES     
   27160 H6        1087.3082 -1268.5624  -839.2539 H6            1 RES     
   27161 H6        1087.1499 -1267.9669  -837.5662 H6            1 RES     
   27162 H6        1087.2748 -1266.3381  -840.2050 H6            1 RES     
   27163 H6        1085.8911 -1266.6380  -839.1134 H6            1 RES     
   27164 H6        1087.0898 -1265.2563  -837.3050 H6            1 RES     
   27165 H6        1086.4685 -1264.4494  -838.7666 H6            1 RES     
   27166 H6        1089.4040 -1265.1633  -838.3285 H6            1 RES     
   27167 H6        1088.7754 -1264.4047  -839.8114 H6            1 RES     
   27168 H6        1089.9829 -1262.9686  -838.1236 H6            1 RES     
   27169 H6        1088.6476 -1263.1820  -836.9630 H6            1 RES     
   27170 H6        1088.6832 -1260.9984  -838.1781 H6            1 RES     
   27171 H6        1088.6285 -1261.8227  -839.7670 H6            1 RES     
   27172 H6        1086.5009 -1260.7402  -839.1707 H6            1 RES     
   27173 H6        1086.2692 -1262.4781  -839.3779 H6            1 RES     
   27174 H6        1086.5781 -1260.9814  -836.6824 H6            1 RES     
   27175 H6        1085.0400 -1261.6137  -837.3851 H6            1 RES     
   27176 H6        1086.3116 -1262.7637  -836.8454 H6            1 RES     
   27177 C0        1095.5744 -1274.7063  -836.1313 C0            1 RES     
   27178 C0        1094.4786 -1275.4429  -835.3225 C0            1 RES     
   27179 C0        1094.5687 -1276.9816  -835.2299 C0            1 RES     
   27180 C0        1094.1154 -1277.8034  -836.4620 C0            1 RES     
   27181 C0        1092.7299 -1277.3725  -836.9869 C0            1 RES     
   27182 C0        1092.0425 -1278.3730  -837.9273 C0            1 RES     
   27183 C0        1091.3684 -1279.5120  -837.1449 C0            1 RES     
   27184 C0        1090.6000 -1280.4617  -838.0756 C0            1 RES     
   27185 C0        1089.7863 -1281.4730  -837.2573 C0            1 RES     
   27186 C0        1089.1749 -1282.6624  -838.0290 C0            1 RES     
   27187 C0        1088.1243 -1282.3814  -839.1244 C0            1 RES     
   27188 C0        1088.7197 -1281.9234  -840.4716 C0            1 RES     
   27189 C0        1087.6938 -1281.7321  -841.6089 C0            1 RES     
   27190 C0        1087.2241 -1282.9971  -842.3698 C0            1 RES     
   27191 C0        1086.3711 -1284.0324  -841.6207 C0            1 RES     
   27192 C0        1085.0973 -1283.4345  -841.0267 C0            1 RES     
   27193 H6        1095.7236 -1275.1793  -837.1260 H6            1 RES     
   27194 H6        1096.5122 -1274.8655  -835.5530 H6            1 RES     
   27195 H6        1094.5861 -1275.0809  -834.2791 H6            1 RES     
   27196 H6        1093.4607 -1275.1918  -835.6492 H6            1 RES     
   27197 H6        1095.5851 -1277.2950  -834.9086 H6            1 RES     
   27198 H6        1093.8658 -1277.2700  -834.4164 H6            1 RES     
   27199 H6        1094.8520 -1277.7361  -837.2917 H6            1 RES     
   27200 H6        1094.0782 -1278.8612  -836.1256 H6            1 RES     
   27201 H6        1092.0296 -1277.1431  -836.1536 H6            1 RES     
   27202 H6        1092.8973 -1276.4547  -837.5658 H6            1 RES     
   27203 H6        1092.7555 -1278.7470  -838.6945 H6            1 RES     
   27204 H6        1091.2274 -1277.8278  -838.4510 H6            1 RES     
   27205 H6        1092.1200 -1280.0885  -836.5659 H6            1 RES     
   27206 H6        1090.6447 -1279.0558  -836.4316 H6            1 RES     
   27207 H6        1089.9003 -1279.8548  -838.6821 H6            1 RES     
   27208 H6        1091.3288 -1280.9854  -838.7305 H6            1 RES     
   27209 H6        1090.4628 -1281.9260  -836.4992 H6            1 RES     
   27210 H6        1088.9834 -1280.9290  -836.7109 H6            1 RES     
   27211 H6        1089.9792 -1283.3041  -838.4489 H6            1 RES     
   27212 H6        1088.6563 -1283.2617  -837.2471 H6            1 RES     
   27213 H6        1087.3556 -1281.6692  -838.7535 H6            1 RES     
   27214 H6        1087.6269 -1283.3458  -839.2864 H6            1 RES     
   27215 H6        1089.1766 -1280.9352  -840.3206 H6            1 RES     
   27216 H6        1089.5194 -1282.6153  -840.8136 H6            1 RES     
   27217 H6        1088.2172 -1281.1308  -842.3858 H6            1 RES     
   27218 H6        1086.8367 -1281.1185  -841.2593 H6            1 RES     
   27219 H6        1086.6176 -1282.6425  -843.2325 H6            1 RES     
   27220 H6        1088.1151 -1283.5161  -842.7859 H6            1 RES     
   27221 H6        1086.0778 -1284.8201  -842.3487 H6            1 RES     
   27222 H6        1086.9607 -1284.5486  -840.8434 H6            1 RES     
   27223 H6        1084.4833 -1282.9675  -841.8258 H6            1 RES     
   27224 H6        1084.5022 -1284.2381  -840.5444 H6            1 RES     
   27225 H6        1085.3387 -1282.6724  -840.2580 H6            1 RES     
   27226 C0        1106.7849 -1272.0117  -841.9704 C0            1 RES     
   27227 C1        1105.8973 -1271.4917  -840.8206 C1            1 RES     
   27228 C1        1106.6279 -1270.7500  -839.7723 C1            1 RES     
   27229 S2        1105.7790 -1271.1254  -838.2307 S2            1 RES     
   27230 C1        1104.3089 -1271.1757  -839.2796 C1            1 RES     
   27231 C1        1104.5943 -1271.5709  -840.5731 C1            1 RES     
   27232 C1        1107.9837 -1271.1888  -840.0678 C1            1 RES     
   27233 C1        1108.1242 -1271.8403  -841.2588 C1            1 RES     
   27234 C1        1109.4615 -1272.1721  -841.5412 C1            1 RES     
   27235 C1        1110.3373 -1271.7029  -840.5330 C1            1 RES     
   27236 S2        1109.4411 -1270.9026  -839.3327 S2            1 RES     
   27237 H3        1103.8454 -1272.0021  -841.2170 H3            1 RES     
   27238 H3        1109.7800 -1272.7039  -842.4291 H3            1 RES     
   27239 N4        1112.3986 -1272.8783  -841.1936 N4            1 RES     
   27240 C1        1113.7391 -1273.1365  -841.1386 C1            1 RES     
   27241 C1        1114.5879 -1272.3586  -840.3418 C1            1 RES     
   27242 C1        1114.0340 -1271.3154  -839.6105 C1            1 RES     
   27243 N4        1114.7596 -1270.4849  -838.8224 N4            1 RES     
   27244 S2        1113.6040 -1269.4638  -838.2311 S2            1 RES     
   27245 N4        1112.2056 -1270.0194  -838.9129 N4            1 RES     
   27246 C1        1112.6350 -1271.0690  -839.6621 C1            1 RES     
   27247 C1        1111.8096 -1271.8775  -840.4730 C1            1 RES     
   27248 H5        1114.1513 -1273.9564  -841.7124 H5            1 RES     
   27249 C0        1106.7309 -1271.0296  -843.1855 C0            1 RES     
   27250 C0        1105.3531 -1270.9481  -843.8503 C0            1 RES     
   27251 C0        1105.1938 -1269.8947  -844.9510 C0            1 RES     
   27252 C0        1105.3830 -1268.4339  -844.5120 C0            1 RES     
   27253 C0        1104.6269 -1268.0805  -843.2148 C0            1 RES     
   27254 C0        1104.5924 -1266.5687  -842.9603 C0            1 RES     
   27255 C0        1103.5059 -1265.8967  -843.8144 C0            1 RES     
   27256 C0        1103.4971 -1264.3794  -843.6247 C0            1 RES     
   27257 C0        1102.2724 -1263.7635  -844.3083 C0            1 RES     
   27258 C0        1102.2731 -1262.2295  -844.4627 C0            1 RES     
   27259 C0        1102.3980 -1261.3677  -843.1903 C0            1 RES     
   27260 C0        1103.8491 -1261.2179  -842.6810 C0            1 RES     
   27261 C0        1104.0218 -1260.3063  -841.4498 C0            1 RES     
   27262 C0        1104.0595 -1258.7783  -841.6932 C0            1 RES     
   27263 C0        1102.7825 -1258.0844  -842.1900 C0            1 RES     
   27264 C0        1101.5844 -1258.3190  -841.2721 C0            1 RES     
   27265 H6        1106.9931 -1270.0175  -842.8108 H6            1 RES     
   27266 H6        1107.4928 -1271.3113  -843.9447 H6            1 RES     
   27267 H6        1105.1518 -1271.9066  -844.3259 H6            1 RES     
   27268 H6        1104.5709 -1270.7576  -843.0925 H6            1 RES     
   27269 H6        1105.8766 -1270.1114  -845.8010 H6            1 RES     
   27270 H6        1104.1501 -1269.9978  -845.3242 H6            1 RES     
   27271 H6        1106.4613 -1268.2150  -844.3535 H6            1 RES     
   27272 H6        1105.0381 -1267.8114  -845.3632 H6            1 RES     
   27273 H6        1103.5851 -1268.4693  -843.2223 H6            1 RES     
   27274 H6        1105.1661 -1268.5670  -842.3738 H6            1 RES     
   27275 H6        1105.6000 -1266.1304  -843.1352 H6            1 RES     
   27276 H6        1104.3204 -1266.3948  -841.8960 H6            1 RES     
   27277 H6        1103.6502 -1266.1102  -844.8938 H6            1 RES     
   27278 H6        1102.5230 -1266.3158  -843.5014 H6            1 RES     
   27279 H6        1103.4377 -1264.1616  -842.5391 H6            1 RES     
   27280 H6        1104.4360 -1263.9701  -844.0578 H6            1 RES     
   27281 H6        1102.1922 -1264.1706  -845.3406 H6            1 RES     
   27282 H6        1101.3656 -1264.0838  -843.7477 H6            1 RES     
   27283 H6        1103.0512 -1261.9139  -845.1908 H6            1 RES     
   27284 H6        1101.2859 -1261.9950  -844.9204 H6            1 RES     
   27285 H6        1101.7169 -1261.7447  -842.3970 H6            1 RES     
   27286 H6        1102.0406 -1260.3749  -843.4889 H6            1 RES     
   27287 H6        1104.2063 -1262.2061  -842.3597 H6            1 RES     
   27288 H6        1104.5246 -1260.8701  -843.4924 H6            1 RES     
   27289 H6        1105.0314 -1260.5394  -841.0424 H6            1 RES     
   27290 H6        1103.2914 -1260.5821  -840.6603 H6            1 RES     
   27291 H6        1104.3279 -1258.3088  -840.7211 H6            1 RES     
   27292 H6        1104.8802 -1258.5490  -842.4076 H6            1 RES     
   27293 H6        1102.9836 -1256.9919  -842.2287 H6            1 RES     
   27294 H6        1102.5459 -1258.3811  -843.2263 H6            1 RES     
   27295 H6        1101.8130 -1257.9656  -840.2445 H6            1 RES     
   27296 H6        1100.7086 -1257.7557  -841.6570 H6            1 RES     
   27297 H6        1101.3158 -1259.3945  -841.2371 H6            1 RES     
   27298 C0        1106.5831 -1273.5340  -842.3614 C0            1 RES     
   27299 C0        1105.1144 -1274.0227  -842.4064 C0            1 RES     
   27300 C0        1104.8479 -1275.4418  -842.9534 C0            1 RES     
   27301 C0        1104.8887 -1275.6394  -844.4890 C0            1 RES     
   27302 C0        1104.0369 -1274.5985  -845.2452 C0            1 RES     
   27303 C0        1103.7031 -1274.9543  -846.7011 C0            1 RES     
   27304 C0        1102.5299 -1275.9446  -846.7856 C0            1 RES     
   27305 C0        1102.1319 -1276.2288  -848.2415 C0            1 RES     
   27306 C0        1100.8469 -1277.0658  -848.2928 C0            1 RES     
   27307 C0        1100.4607 -1277.6659  -849.6620 C0            1 RES     
   27308 C0        1100.1394 -1276.7117  -850.8319 C0            1 RES     
   27309 C0        1101.3825 -1276.1280  -851.5340 C0            1 RES     
   27310 C0        1101.0848 -1275.2496  -852.7680 C0            1 RES     
   27311 C0        1100.8000 -1275.9714  -854.1088 C0            1 RES     
   27312 C0        1099.5098 -1276.7950  -854.2419 C0            1 RES     
   27313 C0        1098.2513 -1275.9767  -853.9601 C0            1 RES     
   27314 H6        1107.0943 -1273.7134  -843.3319 H6            1 RES     
   27315 H6        1107.0788 -1274.1872  -841.6086 H6            1 RES     
   27316 H6        1104.7782 -1274.0493  -841.3493 H6            1 RES     
   27317 H6        1104.4477 -1273.3331  -842.9410 H6            1 RES     
   27318 H6        1105.5038 -1276.1842  -842.4502 H6            1 RES     
   27319 H6        1103.8008 -1275.6794  -842.6598 H6            1 RES     
   27320 H6        1105.9294 -1275.6046  -844.8780 H6            1 RES     
   27321 H6        1104.4902 -1276.6591  -844.6755 H6            1 RES     
   27322 H6        1103.0834 -1274.3856  -844.7133 H6            1 RES     
   27323 H6        1104.6358 -1273.6785  -845.2715 H6            1 RES     
   27324 H6        1104.6077 -1275.3191  -847.2353 H6            1 RES     
   27325 H6        1103.3614 -1274.0211  -847.1993 H6            1 RES     
   27326 H6        1102.7846 -1276.8986  -846.2782 H6            1 RES     
   27327 H6        1101.6579 -1275.4874  -846.2649 H6            1 RES     
   27328 H6        1101.9407 -1275.2588  -848.7398 H6            1 RES     
   27329 H6        1102.9673 -1276.7646  -848.7409 H6            1 RES     
   27330 H6        1100.9757 -1277.9361  -847.6119 H6            1 RES     
   27331 H6        1100.0039 -1276.4532  -847.9015 H6            1 RES     
   27332 H6        1101.2255 -1278.4027  -849.9897 H6            1 RES     
   27333 H6        1099.5261 -1278.2361  -849.4599 H6            1 RES     
   27334 H6        1099.4422 -1275.9113  -850.5017 H6            1 RES     
   27335 H6        1099.6030 -1277.3342  -851.5591 H6            1 RES     
   27336 H6        1101.8940 -1275.4665  -850.8207 H6            1 RES     
   27337 H6        1102.0963 -1276.9303  -851.8204 H6            1 RES     
   27338 H6        1102.0216 -1274.6809  -852.9633 H6            1 RES     
   27339 H6        1100.3030 -1274.4977  -852.5296 H6            1 RES     
   27340 H6        1100.7621 -1275.1828  -854.8927 H6            1 RES     
   27341 H6        1101.6611 -1276.6326  -854.3494 H6            1 RES     
   27342 H6        1099.4534 -1277.1692  -855.2875 H6            1 RES     
   27343 H6        1099.5427 -1277.6949  -853.6037 H6            1 RES     
   27344 H6        1098.1984 -1275.1049  -854.6462 H6            1 RES     
   27345 H6        1097.3546 -1276.6112  -854.1211 H6            1 RES     
   27346 H6        1098.2388 -1275.6180  -852.9107 H6            1 RES     
   27347 C0        1119.5007 -1273.5277  -841.9523 C0            1 RES     
   27348 C1        1118.2919 -1273.0829  -841.1029 C1            1 RES     
   27349 C1        1118.5608 -1273.0032  -839.6523 C1            1 RES     
   27350 S2        1117.0237 -1273.4787  -838.8467 S2            1 RES     
   27351 C1        1116.2563 -1272.6775  -840.2726 C1            1 RES     
   27352 C1        1117.0422 -1272.7500  -841.4075 C1            1 RES     
   27353 C1        1119.7779 -1273.7986  -839.5893 C1            1 RES     
   27354 C1        1120.3408 -1274.0747  -840.8015 C1            1 RES     
   27355 C1        1121.5566 -1274.7729  -840.6888 C1            1 RES     
   27356 C1        1121.9161 -1274.9750  -839.3347 C1            1 RES     
   27357 S2        1120.7304 -1274.2944  -838.3270 S2            1 RES     
   27358 H3        1116.6247 -1272.6679  -842.3975 H3            1 RES     
   27359 H3        1122.1504 -1275.0974  -841.5342 H3            1 RES     
   27360 N4        1123.7686 -1276.5711  -839.6306 N4            1 RES     
   27361 C1        1124.8401 -1277.3047  -839.2060 C1            1 RES     
   27362 C1        1125.3375 -1277.1622  -837.9050 C1            1 RES     
   27363 C1        1124.7165 -1276.2539  -837.0569 C1            1 RES     
   27364 N4        1125.1229 -1276.0173  -835.7855 N4            1 RES     
   27365 S2        1124.0493 -1274.8676  -835.2823 S2            1 RES     
   27366 N4        1123.0693 -1274.6471  -836.5939 N4            1 RES     
   27367 C1        1123.5910 -1275.5104  -837.5050 C1            1 RES     
   27368 C1        1123.1144 -1275.6844  -838.8222 C1            1 RES     
   27369 H5        1125.3079 -1278.0105  -839.8802 H5            1 RES     
   27370 C0        1120.2265 -1272.2828  -842.5585 C0            1 RES     
   27371 C0        1119.3802 -1271.5121  -843.5766 C0            1 RES     
   27372 C0        1119.9750 -1270.1996  -844.0961 C0            1 RES     
   27373 C0        1120.2115 -1269.1077  -843.0405 C0            1 RES     
   27374 C0        1119.0126 -1268.9014  -842.0922 C0            1 RES     
   27375 C0        1119.1556 -1267.6285  -841.2491 C0            1 RES     
   27376 C0        1118.7642 -1266.3870  -842.0657 C0            1 RES     
   27377 C0        1118.9613 -1265.0994  -841.2645 C0            1 RES     
   27378 C0        1118.3591 -1263.9072  -842.0144 C0            1 RES     
   27379 C0        1118.7321 -1262.5071  -841.4873 C0            1 RES     
   27380 C0        1118.3985 -1262.1662  -840.0212 C0            1 RES     
   27381 C0        1119.4270 -1262.7136  -839.0062 C0            1 RES     
   27382 C0        1119.1638 -1262.3340  -837.5353 C0            1 RES     
   27383 C0        1119.6098 -1260.9265  -837.0711 C0            1 RES     
   27384 C0        1118.8887 -1259.7012  -837.6521 C0            1 RES     
   27385 C0        1117.3780 -1259.7413  -837.4300 C0            1 RES     
   27386 H6        1120.4689 -1271.5950  -841.7208 H6            1 RES     
   27387 H6        1121.1872 -1272.5863  -843.0289 H6            1 RES     
   27388 H6        1119.2486 -1272.1452  -844.4526 H6            1 RES     
   27389 H6        1118.3850 -1271.2815  -843.1537 H6            1 RES     
   27390 H6        1120.9240 -1270.3900  -844.6427 H6            1 RES     
   27391 H6        1119.2395 -1269.7997  -844.8299 H6            1 RES     
   27392 H6        1121.1019 -1269.3546  -842.4224 H6            1 RES     
   27393 H6        1120.4442 -1268.1814  -843.6051 H6            1 RES     
   27394 H6        1118.0482 -1268.8623  -842.6445 H6            1 RES     
   27395 H6        1118.9776 -1269.7755  -841.4071 H6            1 RES     
   27396 H6        1120.1875 -1267.5578  -840.8392 H6            1 RES     
   27397 H6        1118.4476 -1267.6890  -840.3935 H6            1 RES     
   27398 H6        1119.3623 -1266.3104  -842.9974 H6            1 RES     
   27399 H6        1117.6912 -1266.4904  -842.3443 H6            1 RES     
   27400 H6        1118.4338 -1265.2051  -840.2950 H6            1 RES     
   27401 H6        1120.0521 -1264.9532  -841.1056 H6            1 RES     
   27402 H6        1118.7047 -1263.9336  -843.0716 H6            1 RES     
   27403 H6        1117.2521 -1264.0241  -842.0181 H6            1 RES     
   27404 H6        1119.8081 -1262.2981  -841.6712 H6            1 RES     
   27405 H6        1118.1511 -1261.8049  -842.1263 H6            1 RES     
   27406 H6        1117.3625 -1262.4841  -839.7741 H6            1 RES     
   27407 H6        1118.4284 -1261.0710  -839.9750 H6            1 RES     
   27408 H6        1119.3870 -1263.8114  -839.0316 H6            1 RES     
   27409 H6        1120.4612 -1262.4141  -839.2827 H6            1 RES     
   27410 H6        1119.7882 -1263.0283  -836.9292 H6            1 RES     
   27411 H6        1118.1070 -1262.5433  -837.2663 H6            1 RES     
   27412 H6        1119.4663 -1260.8960  -835.9684 H6            1 RES     
   27413 H6        1120.6989 -1260.8133  -837.2649 H6            1 RES     
   27414 H6        1119.2921 -1258.7983  -837.1446 H6            1 RES     
   27415 H6        1119.1237 -1259.5718  -838.7226 H6            1 RES     
   27416 H6        1117.1514 -1259.8151  -836.3453 H6            1 RES     
   27417 H6        1116.9216 -1258.8107  -837.8277 H6            1 RES     
   27418 H6        1116.9219 -1260.6034  -837.9578 H6            1 RES     
   27419 C0        1119.2184 -1274.6834  -842.9991 C0            1 RES     
   27420 C0        1117.8870 -1274.5656  -843.7807 C0            1 RES     
   27421 C0        1117.6439 -1275.5606  -844.9362 C0            1 RES     
   27422 C0        1118.3746 -1275.2979  -846.2764 C0            1 RES     
   27423 C0        1118.2092 -1273.8451  -846.7688 C0            1 RES     
   27424 C0        1118.5501 -1273.6088  -848.2473 C0            1 RES     
   27425 C0        1117.3930 -1274.0302  -849.1679 C0            1 RES     
   27426 C0        1117.6928 -1273.7074  -850.6391 C0            1 RES     
   27427 C0        1116.4538 -1273.9624  -851.5076 C0            1 RES     
   27428 C0        1116.6609 -1273.9483  -853.0376 C0            1 RES     
   27429 C0        1117.1307 -1272.6438  -853.7159 C0            1 RES     
   27430 C0        1118.6447 -1272.3754  -853.5941 C0            1 RES     
   27431 C0        1119.1506 -1271.1277  -854.3491 C0            1 RES     
   27432 C0        1119.4073 -1271.2665  -855.8705 C0            1 RES     
   27433 C0        1118.2056 -1271.4836  -856.8030 C0            1 RES     
   27434 C0        1117.1523 -1270.3845  -856.6799 C0            1 RES     
   27435 H6        1120.0854 -1274.7427  -843.6922 H6            1 RES     
   27436 H6        1119.1559 -1275.6629  -842.4739 H6            1 RES     
   27437 H6        1117.0884 -1274.7776  -843.0401 H6            1 RES     
   27438 H6        1117.7058 -1273.5557  -844.1722 H6            1 RES     
   27439 H6        1117.8206 -1276.6039  -844.5973 H6            1 RES     
   27440 H6        1116.5605 -1275.4747  -845.1768 H6            1 RES     
   27441 H6        1119.4587 -1275.5326  -846.2036 H6            1 RES     
   27442 H6        1117.9240 -1275.9982  -847.0112 H6            1 RES     
   27443 H6        1117.1797 -1273.4655  -846.5858 H6            1 RES     
   27444 H6        1118.9138 -1273.2434  -846.1795 H6            1 RES     
   27445 H6        1119.5093 -1274.1039  -848.5148 H6            1 RES     
   27446 H6        1118.6773 -1272.5131  -848.3860 H6            1 RES     
   27447 H6        1117.1828 -1275.1152  -849.0621 H6            1 RES     
   27448 H6        1116.4861 -1273.4615  -848.8601 H6            1 RES     
   27449 H6        1117.9561 -1272.6342  -850.7073 H6            1 RES     
   27450 H6        1118.5428 -1274.3386  -850.9761 H6            1 RES     
   27451 H6        1116.0692 -1274.9785  -851.2685 H6            1 RES     
   27452 H6        1115.6640 -1273.2288  -851.2301 H6            1 RES     
   27453 H6        1117.3291 -1274.7817  -853.3441 H6            1 RES     
   27454 H6        1115.6528 -1274.1702  -853.4548 H6            1 RES     
   27455 H6        1116.5315 -1271.7796  -853.3555 H6            1 RES     
   27456 H6        1116.8978 -1272.7837  -854.7790 H6            1 RES     
   27457 H6        1118.8705 -1272.1879  -852.5349 H6            1 RES     
   27458 H6        1119.2368 -1273.2603  -853.9130 H6            1 RES     
   27459 H6        1120.1570 -1270.9099  -853.9262 H6            1 RES     
   27460 H6        1118.5135 -1270.2483  -854.1163 H6            1 RES     
   27461 H6        1119.9031 -1270.3253  -856.1966 H6            1 RES     
   27462 H6        1120.1311 -1272.0940  -856.0375 H6            1 RES     
   27463 H6        1118.5843 -1271.4857  -857.8484 H6            1 RES     
   27464 H6        1117.7535 -1272.4783  -856.6468 H6            1 RES     
   27465 H6        1117.6047 -1269.3931  -856.8950 H6            1 RES     
   27466 H6        1116.3377 -1270.5701  -857.4111 H6            1 RES     
   27467 H6        1116.7097 -1270.3721  -855.6630 H6            1 RES     
   27468 C0        1130.0876 -1279.5141  -837.9436 C0            1 RES     
   27469 C1        1128.7328 -1278.9300  -837.4921 C1            1 RES     
   27470 C1        1128.2851 -1279.3848  -836.1596 C1            1 RES     
   27471 S2        1126.4909 -1279.4809  -836.2567 S2            1 RES     
   27472 C1        1126.6713 -1278.0733  -837.3749 C1            1 RES     
   27473 C1        1127.8729 -1278.0901  -838.0581 C1            1 RES     
   27474 C1        1129.1425 -1280.5503  -836.0026 C1            1 RES     
   27475 C1        1130.1505 -1280.6427  -836.9181 C1            1 RES     
   27476 C1        1131.0020 -1281.7364  -836.6790 C1            1 RES     
   27477 C1        1130.6231 -1282.4448  -835.5136 C1            1 RES     
   27478 S2        1129.2583 -1281.7074  -834.8220 S2            1 RES     
   27479 H3        1128.0046 -1277.5737  -838.9947 H3            1 RES     
   27480 H3        1131.8516 -1281.9909  -837.3004 H3            1 RES     
   27481 N4        1132.0405 -1284.4437  -835.7634 N4            1 RES     
   27482 C1        1132.6124 -1285.6077  -835.3340 C1            1 RES     
   27483 C1        1132.4442 -1286.0465  -834.0151 C1            1 RES     
   27484 C1        1131.6837 -1285.2673  -833.1524 C1            1 RES     
   27485 N4        1131.4699 -1285.5809  -831.8510 N4            1 RES     
   27486 S2        1130.5336 -1284.3218  -831.3359 S2            1 RES     
   27487 N4        1130.3643 -1283.3831  -832.6848 N4            1 RES     
   27488 C1        1131.0787 -1284.0677  -833.6167 C1            1 RES     
   27489 C1        1131.2663 -1283.6596  -834.9549 C1            1 RES     
   27490 H5        1133.1980 -1286.2033  -836.0224 H5            1 RES     
   27491 C0        1131.2413 -1278.5011  -837.6491 C0            1 RES     
   27492 C0        1131.1533 -1277.2117  -838.4717 C0            1 RES     
   27493 C0        1132.1666 -1276.1167  -838.1244 C0            1 RES     
   27494 C0        1132.0770 -1275.5495  -836.6988 C0            1 RES     
   27495 C0        1130.6369 -1275.2088  -836.2636 C0            1 RES     
   27496 C0        1130.6041 -1274.3850  -834.9706 C0            1 RES     
   27497 C0        1130.9010 -1272.9051  -835.2594 C0            1 RES     
   27498 C0        1130.9374 -1272.0758  -833.9751 C0            1 RES     
   27499 C0        1131.0122 -1270.5822  -834.3067 C0            1 RES     
   27500 C0        1131.3522 -1269.6370  -833.1370 C0            1 RES     
   27501 C0        1130.4319 -1269.6458  -831.9000 C0            1 RES     
   27502 C0        1130.7210 -1270.8034  -830.9184 C0            1 RES     
   27503 C0        1129.8662 -1270.8051  -829.6353 C0            1 RES     
   27504 C0        1130.3002 -1269.8615  -828.4878 C0            1 RES     
   27505 C0        1130.1989 -1268.3450  -828.7090 C0            1 RES     
   27506 C0        1128.7911 -1267.8943  -829.0936 C0            1 RES     
   27507 H6        1131.1824 -1278.2287  -836.5740 H6            1 RES     
   27508 H6        1132.2300 -1278.9814  -837.8173 H6            1 RES     
   27509 H6        1131.3361 -1277.4649  -839.5147 H6            1 RES     
   27510 H6        1130.1436 -1276.7692  -838.3865 H6            1 RES     
   27511 H6        1133.2036 -1276.4704  -838.3117 H6            1 RES     
   27512 H6        1131.9652 -1275.2790  -838.8294 H6            1 RES     
   27513 H6        1132.4960 -1276.2745  -835.9677 H6            1 RES     
   27514 H6        1132.7266 -1274.6501  -836.6858 H6            1 RES     
   27515 H6        1130.0826 -1274.6595  -837.0558 H6            1 RES     
   27516 H6        1130.1093 -1276.1697  -836.0824 H6            1 RES     
   27517 H6        1131.3057 -1274.8199  -834.2246 H6            1 RES     
   27518 H6        1129.5769 -1274.4318  -834.5468 H6            1 RES     
   27519 H6        1131.8735 -1272.7815  -835.7794 H6            1 RES     
   27520 H6        1130.0950 -1272.5227  -835.9256 H6            1 RES     
   27521 H6        1130.0015 -1272.2619  -833.4104 H6            1 RES     
   27522 H6        1131.8241 -1272.3916  -833.3831 H6            1 RES     
   27523 H6        1131.8085 -1270.4204  -835.0666 H6            1 RES     
   27524 H6        1130.0431 -1270.2802  -834.7636 H6            1 RES     
   27525 H6        1132.4023 -1269.7910  -832.8073 H6            1 RES     
   27526 H6        1131.2968 -1268.6165  -833.5782 H6            1 RES     
   27527 H6        1129.3646 -1269.6210  -832.2093 H6            1 RES     
   27528 H6        1130.6486 -1268.7029  -831.3836 H6            1 RES     
   27529 H6        1130.4851 -1271.7510  -831.4224 H6            1 RES     
   27530 H6        1131.7972 -1270.8351  -830.6420 H6            1 RES     
   27531 H6        1129.9761 -1271.8248  -829.2022 H6            1 RES     
   27532 H6        1128.7917 -1270.6834  -829.8877 H6            1 RES     
   27533 H6        1129.6561 -1270.1068  -827.6147 H6            1 RES     
   27534 H6        1131.3477 -1270.1021  -828.2025 H6            1 RES     
   27535 H6        1130.4775 -1267.8442  -827.7566 H6            1 RES     
   27536 H6        1130.9372 -1268.0014  -829.4539 H6            1 RES     
   27537 H6        1128.0640 -1268.1961  -828.3103 H6            1 RES     
   27538 H6        1128.7715 -1266.7888  -829.1922 H6            1 RES     
   27539 H6        1128.4850 -1268.3338  -830.0647 H6            1 RES     
   27540 C0        1130.1213 -1280.1236  -839.4059 C0            1 RES     
   27541 C0        1129.3776 -1279.3033  -840.4884 C0            1 RES     
   27542 C0        1129.5282 -1279.7533  -841.9578 C0            1 RES     
   27543 C0        1130.8459 -1279.3935  -842.6880 C0            1 RES     
   27544 C0        1131.2224 -1277.9049  -842.5360 C0            1 RES     
   27545 C0        1132.2672 -1277.3854  -843.5342 C0            1 RES     
   27546 C0        1131.6343 -1277.0642  -844.8981 C0            1 RES     
   27547 C0        1132.6573 -1276.4553  -845.8684 C0            1 RES     
   27548 C0        1131.9617 -1275.9726  -847.1481 C0            1 RES     
   27549 C0        1132.8733 -1275.5853  -848.3326 C0            1 RES     
   27550 C0        1133.8539 -1274.4050  -848.1657 C0            1 RES     
   27551 C0        1135.1446 -1274.7565  -847.3979 C0            1 RES     
   27552 C0        1136.1818 -1273.6169  -847.3056 C0            1 RES     
   27553 C0        1137.1020 -1273.3853  -848.5302 C0            1 RES     
   27554 C0        1136.4763 -1272.8639  -849.8329 C0            1 RES     
   27555 C0        1135.7292 -1271.5448  -849.6466 C0            1 RES     
   27556 H6        1131.1836 -1280.2884  -839.6884 H6            1 RES     
   27557 H6        1129.6260 -1281.1205  -839.4121 H6            1 RES     
   27558 H6        1128.2983 -1279.4171  -840.2574 H6            1 RES     
   27559 H6        1129.6062 -1278.2300  -840.4476 H6            1 RES     
   27560 H6        1129.3144 -1280.8390  -842.0580 H6            1 RES     
   27561 H6        1128.7320 -1279.2110  -842.5156 H6            1 RES     
   27562 H6        1131.6938 -1280.0179  -842.3323 H6            1 RES     
   27563 H6        1130.6749 -1279.6310  -843.7594 H6            1 RES     
   27564 H6        1130.3271 -1277.2477  -842.5983 H6            1 RES     
   27565 H6        1131.6612 -1277.8042  -841.5345 H6            1 RES     
   27566 H6        1133.1202 -1278.0941  -843.6168 H6            1 RES     
   27567 H6        1132.6557 -1276.4233  -843.1350 H6            1 RES     
   27568 H6        1131.1925 -1277.9768  -845.3502 H6            1 RES     
   27569 H6        1130.8212 -1276.3214  -844.7317 H6            1 RES     
   27570 H6        1133.1243 -1275.5835  -845.3708 H6            1 RES     
   27571 H6        1133.4235 -1277.2239  -846.1064 H6            1 RES     
   27572 H6        1131.3203 -1276.8000  -847.5241 H6            1 RES     
   27573 H6        1131.2954 -1275.1180  -846.8936 H6            1 RES     
   27574 H6        1133.4299 -1276.4751  -848.6979 H6            1 RES     
   27575 H6        1132.1662 -1275.2904  -849.1403 H6            1 RES     
   27576 H6        1133.3367 -1273.5291  -847.7175 H6            1 RES     
   27577 H6        1134.1355 -1274.1306  -849.1901 H6            1 RES     
   27578 H6        1134.8681 -1274.9851  -846.3590 H6            1 RES     
   27579 H6        1135.6319 -1275.6603  -847.8233 H6            1 RES     
   27580 H6        1136.8839 -1273.9165  -846.4955 H6            1 RES     
   27581 H6        1135.6959 -1272.6762  -846.9703 H6            1 RES     
   27582 H6        1137.8657 -1272.6391  -848.2175 H6            1 RES     
   27583 H6        1137.6406 -1274.3312  -848.7572 H6            1 RES     
   27584 H6        1137.3000 -1272.6962  -850.5608 H6            1 RES     
   27585 H6        1135.8208 -1273.6233  -850.2932 H6            1 RES     
   27586 H6        1136.4125 -1270.7711  -849.2364 H6            1 RES     
   27587 H6        1135.3450 -1271.1961  -850.6281 H6            1 RES     
   27588 H6        1134.8664 -1271.6716  -848.9613 H6            1 RES     
   27589 C0        1136.0731 -1289.8464  -833.3171 C0            1 RES     
   27590 C1        1134.8106 -1288.9689  -833.1886 C1            1 RES     
   27591 C1        1133.7016 -1289.5995  -832.4434 C1            1 RES     
   27592 S2        1132.1927 -1289.0006  -833.2196 S2            1 RES     
   27593 C1        1133.1558 -1287.4942  -833.4785 C1            1 RES     
   27594 C1        1134.5082 -1287.7465  -833.6125 C1            1 RES     
   27595 C1        1134.1340 -1290.9880  -832.4979 C1            1 RES     
   27596 C1        1135.4170 -1291.1681  -832.9271 C1            1 RES     
   27597 C1        1135.8191 -1292.5153  -832.8851 C1            1 RES     
   27598 C1        1134.7995 -1293.3458  -832.3612 C1            1 RES     
   27599 S2        1133.4436 -1292.3999  -831.9724 S2            1 RES     
   27600 H3        1135.1694 -1287.0627  -834.1191 H3            1 RES     
   27601 H3        1136.7943 -1292.8673  -833.1979 H3            1 RES     
   27602 N4        1135.7438 -1295.5551  -832.9036 N4            1 RES     
   27603 C1        1135.8018 -1296.9184  -832.8363 C1            1 RES     
   27604 C1        1134.9418 -1297.6328  -831.9934 C1            1 RES     
   27605 C1        1134.0296 -1296.9209  -831.2246 C1            1 RES     
   27606 N4        1133.1633 -1297.5030  -830.3596 N4            1 RES     
   27607 S2        1132.3602 -1296.2007  -829.7378 S2            1 RES     
   27608 N4        1133.0428 -1294.9128  -830.5152 N4            1 RES     
   27609 C1        1133.9669 -1295.5039  -831.3178 C1            1 RES     
   27610 C1        1134.8469 -1294.8180  -832.1825 C1            1 RES     
   27611 H5        1136.5165 -1297.4555  -833.4463 H5            1 RES     
   27612 C0        1137.1177 -1289.4596  -832.2201 C0            1 RES     
   27613 C0        1137.6865 -1288.0465  -832.3827 C0            1 RES     
   27614 C0        1138.6015 -1287.5515  -831.2583 C0            1 RES     
   27615 C0        1137.9536 -1287.4376  -829.8693 C0            1 RES     
   27616 C0        1136.5784 -1286.7391  -829.8893 C0            1 RES     
   27617 C0        1136.0925 -1286.3802  -828.4798 C0            1 RES     
   27618 C0        1136.7730 -1285.0965  -827.9790 C0            1 RES     
   27619 C0        1136.3516 -1284.7555  -826.5492 C0            1 RES     
   27620 C0        1136.8648 -1283.3660  -826.1590 C0            1 RES     
   27621 C0        1136.7809 -1282.9996  -824.6637 C0            1 RES     
   27622 C0        1135.3995 -1283.0356  -823.9797 C0            1 RES     
   27623 C0        1134.9524 -1284.4526  -823.5558 C0            1 RES     
   27624 C0        1133.6066 -1284.5197  -822.8068 C0            1 RES     
   27625 C0        1133.6134 -1284.1827  -821.2962 C0            1 RES     
   27626 C0        1133.9275 -1282.7412  -820.8691 C0            1 RES     
   27627 C0        1132.9934 -1281.7160  -821.5089 C0            1 RES     
   27628 H6        1136.6062 -1289.5141  -831.2357 H6            1 RES     
   27629 H6        1137.9513 -1290.1952  -832.2034 H6            1 RES     
   27630 H6        1138.2925 -1288.0298  -833.2871 H6            1 RES     
   27631 H6        1136.8672 -1287.3122  -832.4919 H6            1 RES     
   27632 H6        1139.5104 -1288.1874  -831.1857 H6            1 RES     
   27633 H6        1138.9292 -1286.5307  -831.5578 H6            1 RES     
   27634 H6        1137.8218 -1288.4462  -829.4208 H6            1 RES     
   27635 H6        1138.6788 -1286.8842  -829.2377 H6            1 RES     
   27636 H6        1136.5894 -1285.8184  -830.5129 H6            1 RES     
   27637 H6        1135.8529 -1287.4485  -830.3420 H6            1 RES     
   27638 H6        1136.2521 -1287.2400  -827.7921 H6            1 RES     
   27639 H6        1135.0010 -1286.1713  -828.5240 H6            1 RES     
   27640 H6        1137.8785 -1285.1893  -828.0017 H6            1 RES     
   27641 H6        1136.4756 -1284.2684  -828.6614 H6            1 RES     
   27642 H6        1135.2437 -1284.7445  -826.5028 H6            1 RES     
   27643 H6        1136.7665 -1285.5324  -825.8705 H6            1 RES     
   27644 H6        1137.9417 -1283.2900  -826.4282 H6            1 RES     
   27645 H6        1136.3121 -1282.6109  -826.7619 H6            1 RES     
   27646 H6        1137.4926 -1283.6161  -824.0733 H6            1 RES     
   27647 H6        1137.1429 -1281.9483  -824.6136 H6            1 RES     
   27648 H6        1134.6381 -1282.5330  -824.6146 H6            1 RES     
   27649 H6        1135.5218 -1282.4340  -823.0710 H6            1 RES     
   27650 H6        1134.8070 -1285.0550  -824.4633 H6            1 RES     
   27651 H6        1135.7359 -1284.9548  -822.9479 H6            1 RES     
   27652 H6        1133.2952 -1285.5880  -822.8433 H6            1 RES     
   27653 H6        1132.8307 -1283.9457  -823.3558 H6            1 RES     
   27654 H6        1132.5965 -1284.4212  -820.9135 H6            1 RES     
   27655 H6        1134.3273 -1284.8616  -820.7804 H6            1 RES     
   27656 H6        1133.8083 -1282.6810  -819.7657 H6            1 RES     
   27657 H6        1134.9829 -1282.4879  -821.0695 H6            1 RES     
   27658 H6        1131.9374 -1281.9477  -821.2548 H6            1 RES     
   27659 H6        1133.2390 -1280.7033  -821.1259 H6            1 RES     
   27660 H6        1133.1100 -1281.7065  -822.6117 H6            1 RES     
   27661 C0        1136.6825 -1289.9665  -834.7749 C0            1 RES     
   27662 C0        1136.7227 -1288.6519  -835.5920 C0            1 RES     
   27663 C0        1137.4666 -1288.6717  -836.9450 C0            1 RES     
   27664 C0        1139.0143 -1288.6199  -836.9148 C0            1 RES     
   27665 C0        1139.5539 -1287.4875  -836.0165 C0            1 RES     
   27666 C0        1141.0271 -1287.1162  -836.2395 C0            1 RES     
   27667 C0        1141.1996 -1286.1998  -837.4621 C0            1 RES     
   27668 C0        1142.6582 -1285.7499  -837.6319 C0            1 RES     
   27669 C0        1142.7682 -1284.6929  -838.7387 C0            1 RES     
   27670 C0        1144.1906 -1284.3349  -839.2209 C0            1 RES     
   27671 C0        1145.1805 -1283.6996  -838.2214 C0            1 RES     
   27672 C0        1145.8504 -1284.7072  -837.2649 C0            1 RES     
   27673 C0        1146.9164 -1284.1066  -836.3238 C0            1 RES     
   27674 C0        1148.3351 -1283.8774  -836.9025 C0            1 RES     
   27675 C0        1148.5235 -1282.8050  -837.9864 C0            1 RES     
   27676 C0        1148.0514 -1281.4221  -837.5419 C0            1 RES     
   27677 H6        1137.6953 -1290.4168  -834.6912 H6            1 RES     
   27678 H6        1136.0672 -1290.6643  -835.3861 H6            1 RES     
   27679 H6        1135.6657 -1288.4264  -835.8433 H6            1 RES     
   27680 H6        1137.1079 -1287.7994  -835.0169 H6            1 RES     
   27681 H6        1137.1201 -1289.5230  -837.5692 H6            1 RES     
   27682 H6        1137.1569 -1287.7378  -837.4657 H6            1 RES     
   27683 H6        1139.4490 -1289.5857  -836.5775 H6            1 RES     
   27684 H6        1139.3339 -1288.4519  -837.9651 H6            1 RES     
   27685 H6        1138.9448 -1286.5618  -836.1143 H6            1 RES     
   27686 H6        1139.4705 -1287.8536  -834.9846 H6            1 RES     
   27687 H6        1141.6592 -1288.0292  -836.2990 H6            1 RES     
   27688 H6        1141.3563 -1286.5258  -835.3569 H6            1 RES     
   27689 H6        1140.8597 -1286.7116  -838.3868 H6            1 RES     
   27690 H6        1140.5682 -1285.2960  -837.3042 H6            1 RES     
   27691 H6        1142.9900 -1285.2969  -836.6777 H6            1 RES     
   27692 H6        1143.2786 -1286.6384  -837.8771 H6            1 RES     
   27693 H6        1142.2376 -1285.0788  -839.6370 H6            1 RES     
   27694 H6        1142.2423 -1283.7698  -838.4066 H6            1 RES     
   27695 H6        1144.6688 -1285.2164  -839.6997 H6            1 RES     
   27696 H6        1144.0286 -1283.5786  -840.0215 H6            1 RES     
   27697 H6        1144.6937 -1282.8691  -837.6654 H6            1 RES     
   27698 H6        1145.9648 -1283.2584  -838.8492 H6            1 RES     
   27699 H6        1145.0724 -1285.1141  -836.6037 H6            1 RES     
   27700 H6        1146.2952 -1285.5582  -837.8247 H6            1 RES     
   27701 H6        1147.0721 -1284.8660  -835.5250 H6            1 RES     
   27702 H6        1146.5231 -1283.1971  -835.8223 H6            1 RES     
   27703 H6        1148.9849 -1283.5892  -836.0466 H6            1 RES     
   27704 H6        1148.7208 -1284.8427  -837.2974 H6            1 RES     
   27705 H6        1149.6097 -1282.7433  -838.2165 H6            1 RES     
   27706 H6        1148.0343 -1283.1009  -838.9305 H6            1 RES     
   27707 H6        1148.5910 -1281.1089  -836.6231 H6            1 RES     
   27708 H6        1148.2595 -1280.6849  -838.3456 H6            1 RES     
   27709 H6        1146.9601 -1281.4209  -837.3439 H6            1 RES     
   27710 C0        1136.9765 -1302.5192  -831.7128 C0            1 RES     
   27711 C1        1136.0045 -1301.3211  -831.6929 C1            1 RES     
   27712 C1        1134.5757 -1301.6925  -831.7500 C1            1 RES     
   27713 S2        1133.7710 -1300.3843  -832.6874 S2            1 RES     
   27714 C1        1135.0128 -1299.3291  -831.9074 C1            1 RES     
   27715 C1        1136.1861 -1300.0063  -831.6324 C1            1 RES     
   27716 C1        1134.7018 -1303.0607  -832.2297 C1            1 RES     
   27717 C1        1135.9708 -1303.5618  -832.1935 C1            1 RES     
   27718 C1        1136.0329 -1304.9108  -832.5869 C1            1 RES     
   27719 C1        1134.7475 -1305.4263  -832.8798 C1            1 RES     
   27720 S2        1133.5844 -1304.2103  -832.6493 S2            1 RES     
   27721 H3        1137.1277 -1299.4946  -831.5185 H3            1 RES     
   27722 H3        1136.9491 -1305.4856  -832.6400 H3            1 RES     
   27723 N4        1135.3855 -1307.5626  -833.9266 N4            1 RES     
   27724 C1        1135.1376 -1308.8077  -834.4314 C1            1 RES     
   27725 C1        1133.8590 -1309.3728  -834.3527 C1            1 RES     
   27726 C1        1132.8488 -1308.6374  -833.7456 C1            1 RES     
   27727 N4        1131.5800 -1309.0899  -833.5944 N4            1 RES     
   27728 S2        1130.8483 -1307.8296  -832.8173 S2            1 RES     
   27729 N4        1132.0553 -1306.7124  -832.6619 N4            1 RES     
   27730 C1        1133.1155 -1307.3356  -833.2410 C1            1 RES     
   27731 C1        1134.4161 -1306.7965  -833.3428 C1            1 RES     
   27732 H5        1135.9368 -1309.3634  -834.9046 H5            1 RES     
   27733 C0        1137.4219 -1302.8819  -830.2589 C0            1 RES     
   27734 C0        1138.2619 -1301.7936  -829.5829 C0            1 RES     
   27735 C0        1138.6044 -1302.0215  -828.1073 C0            1 RES     
   27736 C0        1137.4075 -1302.0932  -827.1457 C0            1 RES     
   27737 C0        1136.3753 -1300.9684  -827.3661 C0            1 RES     
   27738 C0        1135.3551 -1300.8890  -826.2239 C0            1 RES     
   27739 C0        1135.9483 -1300.1511  -825.0135 C0            1 RES     
   27740 C0        1134.9702 -1300.1170  -823.8385 C0            1 RES     
   27741 C0        1135.4937 -1299.1920  -822.7354 C0            1 RES     
   27742 C0        1134.7782 -1299.2780  -821.3725 C0            1 RES     
   27743 C0        1133.2611 -1299.0069  -821.3259 C0            1 RES     
   27744 C0        1132.3997 -1300.2200  -821.7429 C0            1 RES     
   27745 C0        1130.8759 -1300.0085  -821.6429 C0            1 RES     
   27746 C0        1130.2251 -1300.1579  -820.2466 C0            1 RES     
   27747 C0        1130.5706 -1299.1253  -819.1635 C0            1 RES     
   27748 C0        1130.2759 -1297.6904  -819.5963 C0            1 RES     
   27749 H6        1136.5027 -1303.0330  -829.6542 H6            1 RES     
   27750 H6        1137.9847 -1303.8408  -830.2546 H6            1 RES     
   27751 H6        1139.2166 -1301.7338  -830.1030 H6            1 RES     
   27752 H6        1137.7553 -1300.8138  -829.6589 H6            1 RES     
   27753 H6        1139.2243 -1302.9362  -827.9868 H6            1 RES     
   27754 H6        1139.2269 -1301.1513  -827.7999 H6            1 RES     
   27755 H6        1136.8839 -1303.0680  -827.2530 H6            1 RES     
   27756 H6        1137.8344 -1302.0552  -826.1223 H6            1 RES     
   27757 H6        1136.8620 -1299.9756  -827.4852 H6            1 RES     
   27758 H6        1135.8322 -1301.1968  -828.3081 H6            1 RES     
   27759 H6        1134.9956 -1301.9091  -825.9635 H6            1 RES     
   27760 H6        1134.4821 -1300.2930  -826.5697 H6            1 RES     
   27761 H6        1136.8880 -1300.6300  -824.6684 H6            1 RES     
   27762 H6        1136.1810 -1299.1102  -825.3333 H6            1 RES     
   27763 H6        1134.0014 -1299.7165  -824.1998 H6            1 RES     
   27764 H6        1134.8499 -1301.1545  -823.4570 H6            1 RES     
   27765 H6        1136.5595 -1299.4388  -822.5328 H6            1 RES     
   27766 H6        1135.4555 -1298.1459  -823.1139 H6            1 RES     
   27767 H6        1134.9856 -1300.2562  -820.8872 H6            1 RES     
   27768 H6        1135.2690 -1298.4964  -820.7503 H6            1 RES     
   27769 H6        1133.0104 -1298.0981  -821.9147 H6            1 RES     
   27770 H6        1133.0485 -1298.7877  -820.2726 H6            1 RES     
   27771 H6        1132.5918 -1300.4317  -822.8040 H6            1 RES     
   27772 H6        1132.6823 -1301.1286  -821.1682 H6            1 RES     
   27773 H6        1130.4187 -1300.8275  -822.2426 H6            1 RES     
   27774 H6        1130.5856 -1299.0566  -822.1354 H6            1 RES     
   27775 H6        1129.1248 -1300.1101  -820.4028 H6            1 RES     
   27776 H6        1130.4579 -1301.1700  -819.8489 H6            1 RES     
   27777 H6        1129.9527 -1299.3534  -818.2682 H6            1 RES     
   27778 H6        1131.6195 -1299.2279  -818.8361 H6            1 RES     
   27779 H6        1129.2050 -1297.5843  -819.8703 H6            1 RES     
   27780 H6        1130.5003 -1296.9984  -818.7577 H6            1 RES     
   27781 H6        1130.9049 -1297.3999  -820.4623 H6            1 RES     
   27782 C0        1138.1719 -1302.4186  -832.7480 C0            1 RES     
   27783 C0        1138.8530 -1301.0316  -832.8486 C0            1 RES     
   27784 C0        1140.1331 -1300.9223  -833.7051 C0            1 RES     
   27785 C0        1141.4543 -1301.4505  -833.0933 C0            1 RES     
   27786 C0        1141.7074 -1300.9118  -831.6698 C0            1 RES     
   27787 C0        1143.1480 -1301.0560  -831.1583 C0            1 RES     
   27788 C0        1144.0586 -1299.9497  -831.7160 C0            1 RES     
   27789 C0        1145.4766 -1300.0349  -831.1322 C0            1 RES     
   27790 C0        1146.3057 -1298.8156  -831.5569 C0            1 RES     
   27791 C0        1147.8242 -1298.8767  -831.2841 C0            1 RES     
   27792 C0        1148.3178 -1298.9712  -829.8246 C0            1 RES     
   27793 C0        1148.2382 -1300.3874  -829.2186 C0            1 RES     
   27794 C0        1148.8181 -1300.5231  -827.7946 C0            1 RES     
   27795 C0        1150.3544 -1300.6682  -827.6579 C0            1 RES     
   27796 C0        1151.2428 -1299.4707  -828.0285 C0            1 RES     
   27797 C0        1150.8951 -1298.2078  -827.2429 C0            1 RES     
   27798 H6        1138.9117 -1303.2106  -832.5013 H6            1 RES     
   27799 H6        1137.8014 -1302.6303  -833.7761 H6            1 RES     
   27800 H6        1138.1117 -1300.3725  -833.3461 H6            1 RES     
   27801 H6        1139.0738 -1300.5886  -831.8684 H6            1 RES     
   27802 H6        1139.9690 -1301.3639  -834.7114 H6            1 RES     
   27803 H6        1140.2986 -1299.8312  -833.8506 H6            1 RES     
   27804 H6        1141.4773 -1302.5615  -833.0676 H6            1 RES     
   27805 H6        1142.2628 -1301.1095  -833.7741 H6            1 RES     
   27806 H6        1141.4126 -1299.8431  -831.5781 H6            1 RES     
   27807 H6        1141.0714 -1301.5084  -831.0025 H6            1 RES     
   27808 H6        1143.5401 -1302.0756  -831.3664 H6            1 RES     
   27809 H6        1143.1229 -1300.9146  -830.0559 H6            1 RES     
   27810 H6        1144.1100 -1300.0054  -832.8236 H6            1 RES     
   27811 H6        1143.6183 -1298.9674  -831.4301 H6            1 RES     
   27812 H6        1145.3928 -1300.0368  -830.0283 H6            1 RES     
   27813 H6        1145.9523 -1300.9739  -831.4878 H6            1 RES     
   27814 H6        1146.2056 -1298.6982  -832.6586 H6            1 RES     
   27815 H6        1145.8762 -1297.9061  -831.0802 H6            1 RES     
   27816 H6        1148.2911 -1299.6889  -831.8820 H6            1 RES     
   27817 H6        1148.2155 -1297.9139  -831.6830 H6            1 RES     
   27818 H6        1147.7967 -1298.2237  -829.1879 H6            1 RES     
   27819 H6        1149.3756 -1298.6831  -829.8697 H6            1 RES     
   27820 H6        1147.1765 -1300.6573  -829.1291 H6            1 RES     
   27821 H6        1148.7211 -1301.1365  -829.8826 H6            1 RES     
   27822 H6        1148.4218 -1301.4858  -827.4007 H6            1 RES     
   27823 H6        1148.4186 -1299.7239  -827.1350 H6            1 RES     
   27824 H6        1150.5579 -1300.9029  -826.5896 H6            1 RES     
   27825 H6        1150.6857 -1301.5453  -828.2558 H6            1 RES     
   27826 H6        1152.2951 -1299.7450  -827.7962 H6            1 RES     
   27827 H6        1151.2176 -1299.2755  -829.1145 H6            1 RES     
   27828 H6        1150.9790 -1298.3988  -826.1520 H6            1 RES     
   27829 H6        1151.6011 -1297.3961  -827.5175 H6            1 RES     
   27830 H6        1149.8660 -1297.8667  -827.4768 H6            1 RES     
   27831 C0        1134.5164 -1314.5139  -835.4629 C0            1 RES     
   27832 C1        1133.9076 -1313.1068  -835.2899 C1            1 RES     
   27833 C1        1132.6388 -1312.8964  -836.0171 C1            1 RES     
   27834 S2        1132.6525 -1311.1712  -836.5283 S2            1 RES     
   27835 C1        1133.5486 -1310.9223  -834.9794 C1            1 RES     
   27836 C1        1134.2902 -1312.0297  -834.6125 C1            1 RES     
   27837 C1        1132.7099 -1314.0096  -836.9518 C1            1 RES     
   27838 C1        1133.6819 -1314.9261  -836.6725 C1            1 RES     
   27839 C1        1133.6605 -1316.0244  -837.5510 C1            1 RES     
   27840 C1        1132.5994 -1315.9242  -838.4824 C1            1 RES     
   27841 S2        1131.7297 -1314.4935  -838.1973 S2            1 RES     
   27842 H3        1135.1418 -1311.9550  -833.9564 H3            1 RES     
   27843 H3        1134.3587 -1316.8509  -837.5058 H3            1 RES     
   27844 N4        1133.2305 -1317.7357  -840.0274 N4            1 RES     
   27845 C1        1133.0172 -1318.5963  -841.0668 C1            1 RES     
   27846 C1        1131.7744 -1318.6518  -841.7094 C1            1 RES     
   27847 C1        1130.7621 -1317.8122  -841.2620 C1            1 RES     
   27848 N4        1129.5150 -1317.7932  -841.7930 N4            1 RES     
   27849 S2        1128.7621 -1316.6418  -840.8792 S2            1 RES     
   27850 N4        1129.9391 -1316.1414  -839.8334 N4            1 RES     
   27851 C1        1131.0027 -1316.9083  -840.1916 C1            1 RES     
   27852 C1        1132.2702 -1316.8770  -839.5712 C1            1 RES     
   27853 H5        1133.8197 -1319.2396  -841.4038 H5            1 RES     
   27854 C0        1134.1321 -1315.4249  -834.2519 C0            1 RES     
   27855 C0        1134.7402 -1314.9694  -832.9217 C0            1 RES     
   27856 C0        1134.2837 -1315.7301  -831.6729 C0            1 RES     
   27857 C0        1132.7849 -1315.6397  -831.3446 C0            1 RES     
   27858 C0        1132.2252 -1314.2045  -831.4237 C0            1 RES     
   27859 C0        1130.8209 -1314.0982  -830.8170 C0            1 RES     
   27860 C0        1130.8939 -1314.0193  -829.2840 C0            1 RES     
   27861 C0        1129.5010 -1313.9781  -828.6541 C0            1 RES     
   27862 C0        1129.6021 -1313.6770  -827.1556 C0            1 RES     
   27863 C0        1128.3209 -1313.8930  -826.3256 C0            1 RES     
   27864 C0        1127.0521 -1313.1134  -826.7250 C0            1 RES     
   27865 C0        1126.2776 -1313.7476  -827.9021 C0            1 RES     
   27866 C0        1124.9658 -1313.0339  -828.2851 C0            1 RES     
   27867 C0        1123.7118 -1313.3394  -827.4310 C0            1 RES     
   27868 C0        1123.6908 -1312.8724  -825.9680 C0            1 RES     
   27869 C0        1123.9247 -1311.3701  -825.8215 C0            1 RES     
   27870 H6        1133.0263 -1315.4008  -834.1515 H6            1 RES     
   27871 H6        1134.4255 -1316.4786  -834.4522 H6            1 RES     
   27872 H6        1135.8182 -1315.1120  -832.9781 H6            1 RES     
   27873 H6        1134.5334 -1313.8967  -832.7514 H6            1 RES     
   27874 H6        1134.5790 -1316.7998  -831.7373 H6            1 RES     
   27875 H6        1134.8393 -1315.2793  -830.8200 H6            1 RES     
   27876 H6        1132.1981 -1316.2778  -832.0404 H6            1 RES     
   27877 H6        1132.6687 -1316.0632  -830.3257 H6            1 RES     
   27878 H6        1132.8923 -1313.4703  -830.9211 H6            1 RES     
   27879 H6        1132.1660 -1313.9306  -832.4989 H6            1 RES     
   27880 H6        1130.1898 -1314.9446  -831.1679 H6            1 RES     
   27881 H6        1130.3544 -1313.1513  -831.1674 H6            1 RES     
   27882 H6        1131.4405 -1314.8870  -828.8598 H6            1 RES     
   27883 H6        1131.4487 -1313.0909  -829.0196 H6            1 RES     
   27884 H6        1128.9220 -1313.1643  -829.1358 H6            1 RES     
   27885 H6        1129.0136 -1314.9628  -828.8250 H6            1 RES     
   27886 H6        1130.3700 -1314.3437  -826.7043 H6            1 RES     
   27887 H6        1129.9540 -1312.6277  -827.0364 H6            1 RES     
   27888 H6        1128.0761 -1314.9755  -826.2657 H6            1 RES     
   27889 H6        1128.5959 -1313.5650  -825.2981 H6            1 RES     
   27890 H6        1127.2957 -1312.0459  -826.9160 H6            1 RES     
   27891 H6        1126.4091 -1313.1523  -825.8375 H6            1 RES     
   27892 H6        1126.9081 -1313.6923  -828.8003 H6            1 RES     
   27893 H6        1126.0680 -1314.8224  -827.7110 H6            1 RES     
   27894 H6        1124.7015 -1313.4138  -829.2977 H6            1 RES     
   27895 H6        1125.1380 -1311.9423  -828.3925 H6            1 RES     
   27896 H6        1122.8534 -1312.8495  -827.9414 H6            1 RES     
   27897 H6        1123.5240 -1314.4354  -827.4488 H6            1 RES     
   27898 H6        1122.6892 -1313.1119  -825.5500 H6            1 RES     
   27899 H6        1124.4127 -1313.4423  -825.3581 H6            1 RES     
   27900 H6        1123.1591 -1310.8048  -826.3938 H6            1 RES     
   27901 H6        1123.8506 -1311.0877  -824.7504 H6            1 RES     
   27902 H6        1124.9339 -1311.0882  -826.1846 H6            1 RES     
   27903 C0        1136.0548 -1314.5567  -835.8403 C0            1 RES     
   27904 C0        1136.9561 -1313.5507  -835.0832 C0            1 RES     
   27905 C0        1138.4833 -1313.6694  -835.2782 C0            1 RES     
   27906 C0        1139.2195 -1314.7983  -834.5151 C0            1 RES     
   27907 C0        1138.8605 -1314.8340  -833.0149 C0            1 RES     
   27908 C0        1139.8218 -1315.6379  -832.1274 C0            1 RES     
   27909 C0        1141.0836 -1314.8291  -831.7846 C0            1 RES     
   27910 C0        1142.0025 -1315.5938  -830.8203 C0            1 RES     
   27911 C0        1143.1530 -1314.6946  -830.3489 C0            1 RES     
   27912 C0        1144.3112 -1315.3833  -829.5951 C0            1 RES     
   27913 C0        1144.0178 -1316.0766  -828.2476 C0            1 RES     
   27914 C0        1143.3842 -1317.4767  -828.3794 C0            1 RES     
   27915 C0        1143.1737 -1318.2275  -827.0473 C0            1 RES     
   27916 C0        1144.3958 -1318.9568  -826.4354 C0            1 RES     
   27917 C0        1145.5670 -1318.1144  -825.9069 C0            1 RES     
   27918 C0        1145.1395 -1317.1033  -824.8449 C0            1 RES     
   27919 H6        1136.4163 -1315.5989  -835.7041 H6            1 RES     
   27920 H6        1136.1877 -1314.3058  -836.9166 H6            1 RES     
   27921 H6        1136.6874 -1312.5516  -835.4841 H6            1 RES     
   27922 H6        1136.7629 -1313.5287  -834.0024 H6            1 RES     
   27923 H6        1138.7378 -1313.7033  -836.3592 H6            1 RES     
   27924 H6        1138.9069 -1312.7233  -834.8726 H6            1 RES     
   27925 H6        1139.0106 -1315.7956  -834.9595 H6            1 RES     
   27926 H6        1140.3038 -1314.5920  -834.6379 H6            1 RES     
   27927 H6        1138.7723 -1313.8095  -832.5906 H6            1 RES     
   27928 H6        1137.8807 -1315.3253  -832.9495 H6            1 RES     
   27929 H6        1140.0586 -1316.6203  -832.5916 H6            1 RES     
   27930 H6        1139.3008 -1315.8284  -831.1640 H6            1 RES     
   27931 H6        1141.6464 -1314.5709  -832.7061 H6            1 RES     
   27932 H6        1140.7611 -1313.8849  -831.2895 H6            1 RES     
   27933 H6        1141.4025 -1315.8899  -829.9383 H6            1 RES     
   27934 H6        1142.3971 -1316.4921  -831.3417 H6            1 RES     
   27935 H6        1143.6167 -1314.2301  -831.2470 H6            1 RES     
   27936 H6        1142.7342 -1313.8749  -829.7232 H6            1 RES     
   27937 H6        1144.8388 -1316.0950  -830.2660 H6            1 RES     
   27938 H6        1145.0244 -1314.5583  -829.3716 H6            1 RES     
   27939 H6        1143.4126 -1315.4136  -827.5919 H6            1 RES     
   27940 H6        1145.0013 -1316.1950  -827.7759 H6            1 RES     
   27941 H6        1142.3795 -1317.3539  -828.8079 H6            1 RES     
   27942 H6        1143.9694 -1318.1191  -829.0723 H6            1 RES     
   27943 H6        1142.4585 -1319.0491  -827.2768 H6            1 RES     
   27944 H6        1142.6717 -1317.5700  -826.3063 H6            1 RES     
   27945 H6        1144.0137 -1319.5529  -825.5773 H6            1 RES     
   27946 H6        1144.7947 -1319.6764  -827.1835 H6            1 RES     
   27947 H6        1146.3037 -1318.8092  -825.4477 H6            1 RES     
   27948 H6        1146.1026 -1317.6130  -826.7315 H6            1 RES     
   27949 H6        1144.6526 -1317.6238  -823.9930 H6            1 RES     
   27950 H6        1146.0333 -1316.5633  -824.4681 H6            1 RES     
   27951 H6        1144.4363 -1316.3575  -825.2684 H6            1 RES     
   27952 C0        1131.8674 -1323.1056  -844.5819 C0            1 RES     
   27953 C1        1131.5372 -1321.6915  -844.0605 C1            1 RES     
   27954 C1        1130.8392 -1320.8284  -845.0355 C1            1 RES     
   27955 S2        1131.4311 -1319.1592  -844.7174 S2            1 RES     
   27956 C1        1131.5065 -1319.7225  -843.0024 C1            1 RES     
   27957 C1        1131.7507 -1321.0793  -842.9008 C1            1 RES     
   27958 C1        1131.1303 -1321.5624  -846.2580 C1            1 RES     
   27959 C1        1131.6508 -1322.8089  -846.0632 C1            1 RES     
   27960 C1        1131.8387 -1323.5125  -847.2666 C1            1 RES     
   27961 C1        1131.3947 -1322.7624  -848.3819 C1            1 RES     
   27962 S2        1130.7921 -1321.2652  -847.8528 S2            1 RES     
   27963 H3        1132.1809 -1321.5173  -842.0151 H3            1 RES     
   27964 H3        1132.2542 -1324.5107  -847.3271 H3            1 RES     
   27965 N4        1132.3212 -1324.1379  -850.2029 N4            1 RES     
   27966 C1        1132.4680 -1324.5140  -851.5081 C1            1 RES     
   27967 C1        1131.7000 -1323.9202  -852.5171 C1            1 RES     
   27968 C1        1130.7825 -1322.9408  -852.1580 C1            1 RES     
   27969 N4        1129.9720 -1322.3124  -853.0444 N4            1 RES     
   27970 S2        1129.1144 -1321.2897  -852.0717 S2            1 RES     
   27971 N4        1129.7199 -1321.5853  -850.5634 N4            1 RES     
   27972 C1        1130.6528 -1322.5455  -850.7989 C1            1 RES     
   27973 C1        1131.4478 -1323.1632  -849.8095 C1            1 RES     
   27974 H5        1133.1912 -1325.2759  -851.7686 H5            1 RES     
   27975 C0        1130.7821 -1324.1264  -844.1087 C0            1 RES     
   27976 C0        1130.7556 -1324.3377  -842.5916 C0            1 RES     
   27977 C0        1129.6195 -1325.2106  -842.0494 C0            1 RES     
   27978 C0        1128.1965 -1324.6802  -842.2862 C0            1 RES     
   27979 C0        1128.0343 -1323.1850  -841.9435 C0            1 RES     
   27980 C0        1126.5621 -1322.7571  -841.9086 C0            1 RES     
   27981 C0        1125.9071 -1323.1654  -840.5798 C0            1 RES     
   27982 C0        1124.4211 -1322.8059  -840.5493 C0            1 RES     
   27983 C0        1123.8498 -1323.0181  -839.1440 C0            1 RES     
   27984 C0        1122.3136 -1322.9855  -839.0168 C0            1 RES     
   27985 C0        1121.5696 -1321.7162  -839.4778 C0            1 RES     
   27986 C0        1121.3456 -1321.6470  -841.0050 C0            1 RES     
   27987 C0        1120.5441 -1320.4250  -841.4962 C0            1 RES     
   27988 C0        1119.0023 -1320.4885  -841.3774 C0            1 RES     
   27989 C0        1118.3758 -1320.4990  -839.9752 C0            1 RES     
   27990 C0        1118.7985 -1319.3007  -839.1276 C0            1 RES     
   27991 H6        1129.7917 -1323.7310  -844.4189 H6            1 RES     
   27992 H6        1130.9240 -1325.1051  -844.6169 H6            1 RES     
   27993 H6        1131.6780 -1324.8406  -842.3058 H6            1 RES     
   27994 H6        1130.7058 -1323.3650  -842.0685 H6            1 RES     
   27995 H6        1129.6950 -1326.2442  -842.4514 H6            1 RES     
   27996 H6        1129.7753 -1325.2664  -840.9486 H6            1 RES     
   27997 H6        1127.9023 -1324.8247  -843.3484 H6            1 RES     
   27998 H6        1127.5273 -1325.3118  -841.6662 H6            1 RES     
   27999 H6        1128.5082 -1322.9281  -840.9709 H6            1 RES     
   28000 H6        1128.5509 -1322.6049  -842.7380 H6            1 RES     
   28001 H6        1126.0247 -1323.1709  -842.7905 H6            1 RES     
   28002 H6        1126.5145 -1321.6473  -841.9649 H6            1 RES     
   28003 H6        1126.0036 -1324.2561  -840.3996 H6            1 RES     
   28004 H6        1126.4366 -1322.6258  -839.7624 H6            1 RES     
   28005 H6        1124.3138 -1321.7340  -840.8120 H6            1 RES     
   28006 H6        1123.8936 -1323.4474  -841.2888 H6            1 RES     
   28007 H6        1124.1619 -1324.0201  -838.7747 H6            1 RES     
   28008 H6        1124.2984 -1322.2549  -838.4691 H6            1 RES     
   28009 H6        1121.8646 -1323.8698  -839.5185 H6            1 RES     
   28010 H6        1122.1218 -1323.0987  -837.9262 H6            1 RES     
   28011 H6        1122.0774 -1320.8060  -839.0914 H6            1 RES     
   28012 H6        1120.5870 -1321.7770  -838.9946 H6            1 RES     
   28013 H6        1122.3258 -1321.5639  -841.4946 H6            1 RES     
   28014 H6        1120.8655 -1322.5760  -841.3820 H6            1 RES     
   28015 H6        1120.7279 -1320.3659  -842.5927 H6            1 RES     
   28016 H6        1120.9554 -1319.4921  -841.0565 H6            1 RES     
   28017 H6        1118.6065 -1319.5922  -841.9040 H6            1 RES     
   28018 H6        1118.6366 -1321.3826  -841.9283 H6            1 RES     
   28019 H6        1117.2715 -1320.4679  -840.0970 H6            1 RES     
   28020 H6        1118.5915 -1321.4455  -839.4502 H6            1 RES     
   28021 H6        1118.5265 -1318.3534  -839.6394 H6            1 RES     
   28022 H6        1118.2779 -1319.3396  -838.1478 H6            1 RES     
   28023 H6        1119.8914 -1319.3133  -838.9395 H6            1 RES     
   28024 C0        1133.3571 -1323.5939  -844.3510 C0            1 RES     
   28025 C0        1133.9630 -1323.2574  -842.9663 C0            1 RES     
   28026 C0        1135.3410 -1323.8623  -842.6209 C0            1 RES     
   28027 C0        1135.3870 -1325.3528  -842.2025 C0            1 RES     
   28028 C0        1134.3554 -1325.6949  -841.1073 C0            1 RES     
   28029 C0        1134.5979 -1327.0171  -840.3651 C0            1 RES     
   28030 C0        1135.6722 -1326.8644  -839.2758 C0            1 RES     
   28031 C0        1135.8493 -1328.1591  -838.4689 C0            1 RES     
   28032 C0        1136.7843 -1327.9237  -837.2753 C0            1 RES     
   28033 C0        1137.2818 -1329.1767  -836.5226 C0            1 RES     
   28034 C0        1136.2513 -1330.0786  -835.8104 C0            1 RES     
   28035 C0        1135.4992 -1331.0451  -836.7482 C0            1 RES     
   28036 C0        1134.5358 -1332.0236  -836.0430 C0            1 RES     
   28037 C0        1135.1481 -1333.2940  -835.4019 C0            1 RES     
   28038 C0        1136.0625 -1333.1331  -834.1777 C0            1 RES     
   28039 C0        1135.3854 -1332.3967  -833.0235 C0            1 RES     
   28040 H6        1133.3988 -1324.6865  -844.5511 H6            1 RES     
   28041 H6        1134.0344 -1323.1039  -845.0861 H6            1 RES     
   28042 H6        1134.1190 -1322.1587  -842.9698 H6            1 RES     
   28043 H6        1133.2850 -1323.4855  -842.1331 H6            1 RES     
   28044 H6        1136.0693 -1323.6669  -843.4370 H6            1 RES     
   28045 H6        1135.6942 -1323.3007  -841.7270 H6            1 RES     
   28046 H6        1135.2265 -1326.0265  -843.0719 H6            1 RES     
   28047 H6        1136.4146 -1325.5302  -841.8203 H6            1 RES     
   28048 H6        1134.2764 -1324.8828  -840.3513 H6            1 RES     
   28049 H6        1133.3893 -1325.7903  -841.6204 H6            1 RES     
   28050 H6        1134.8314 -1327.8346  -841.0820 H6            1 RES     
   28051 H6        1133.6540 -1327.2788  -839.8393 H6            1 RES     
   28052 H6        1136.6450 -1326.5705  -839.7228 H6            1 RES     
   28053 H6        1135.3430 -1326.0585  -838.5810 H6            1 RES     
   28054 H6        1134.8561 -1328.4613  -838.0843 H6            1 RES     
   28055 H6        1136.2616 -1328.9430  -839.1395 H6            1 RES     
   28056 H6        1137.7013 -1327.4183  -837.6510 H6            1 RES     
   28057 H6        1136.2861 -1327.2310  -836.5605 H6            1 RES     
   28058 H6        1137.9159 -1329.8004  -837.1889 H6            1 RES     
   28059 H6        1137.9464 -1328.7742  -835.7253 H6            1 RES     
   28060 H6        1135.5486 -1329.4652  -835.2059 H6            1 RES     
   28061 H6        1136.8452 -1330.6811  -835.1117 H6            1 RES     
   28062 H6        1134.8675 -1330.4437  -837.4170 H6            1 RES     
   28063 H6        1136.2066 -1331.6222  -837.3820 H6            1 RES     
   28064 H6        1133.8732 -1332.4205  -836.8445 H6            1 RES     
   28065 H6        1133.8797 -1331.4777  -835.3325 H6            1 RES     
   28066 H6        1134.2945 -1333.9336  -835.0855 H6            1 RES     
   28067 H6        1135.7074 -1333.8549  -836.1823 H6            1 RES     
   28068 H6        1136.3387 -1334.1509  -833.8252 H6            1 RES     
   28069 H6        1137.0131 -1332.6431  -834.4506 H6            1 RES     
   28070 H6        1134.4598 -1332.9294  -832.7183 H6            1 RES     
   28071 H6        1136.0759 -1332.3570  -832.1550 H6            1 RES     
   28072 H6        1135.1308 -1331.3566  -833.3123 H6            1 RES     
   28073 C0        1132.2861 -1327.0421  -856.7604 C0            1 RES     
   28074 C1        1132.0292 -1325.8261  -855.8461 C1            1 RES     
   28075 C1        1132.0655 -1324.5220  -856.5394 C1            1 RES     
   28076 S2        1132.7453 -1323.3574  -855.3479 S2            1 RES     
   28077 C1        1131.8803 -1324.3873  -854.1417 C1            1 RES     
   28078 C1        1131.7768 -1325.7047  -854.5473 C1            1 RES     
   28079 C1        1132.7564 -1324.9165  -857.7580 C1            1 RES     
   28080 C1        1132.8665 -1326.2648  -857.9387 C1            1 RES     
   28081 C1        1133.4658 -1326.6006  -859.1661 C1            1 RES     
   28082 C1        1133.7647 -1325.4476  -859.9310 C1            1 RES     
   28083 S2        1133.2871 -1324.0611  -859.0744 S2            1 RES     
   28084 H3        1131.6366 -1326.5095  -853.8444 H3            1 RES     
   28085 H3        1133.6563 -1327.6161  -859.4904 H3            1 RES     
   28086 N4        1135.1612 -1326.4646  -861.6867 N4            1 RES     
   28087 C1        1135.8376 -1326.4661  -862.8737 C1            1 RES     
   28088 C1        1135.7779 -1325.3643  -863.7355 C1            1 RES     
   28089 C1        1135.0110 -1324.2700  -863.3553 C1            1 RES     
   28090 N4        1134.8629 -1323.1582  -864.1165 N4            1 RES     
   28091 S2        1133.8625 -1322.2282  -863.1882 S2            1 RES     
   28092 N4        1133.6024 -1323.1544  -861.8452 N4            1 RES     
   28093 C1        1134.3270 -1324.2736  -862.1093 C1            1 RES     
   28094 C1        1134.4147 -1325.4007  -861.2640 C1            1 RES     
   28095 H5        1136.4333 -1327.3264  -863.1504 H5            1 RES     
   28096 C0        1130.9316 -1327.6868  -857.2006 C0            1 RES     
   28097 C0        1130.1424 -1328.3104  -856.0450 C0            1 RES     
   28098 C0        1128.7403 -1328.8262  -856.3834 C0            1 RES     
   28099 C0        1127.7379 -1327.7685  -856.8723 C0            1 RES     
   28100 C0        1127.7262 -1326.4896  -856.0100 C0            1 RES     
   28101 C0        1126.5320 -1325.5845  -856.3358 C0            1 RES     
   28102 C0        1125.2562 -1326.0972  -855.6495 C0            1 RES     
   28103 C0        1124.0389 -1325.2462  -856.0132 C0            1 RES     
   28104 C0        1122.8364 -1325.6387  -855.1493 C0            1 RES     
   28105 C0        1121.4662 -1325.0866  -855.5908 C0            1 RES     
   28106 C0        1121.2965 -1323.5582  -855.7021 C0            1 RES     
   28107 C0        1121.8482 -1322.9657  -857.0182 C0            1 RES     
   28108 C0        1121.6346 -1321.4492  -857.1957 C0            1 RES     
   28109 C0        1120.2449 -1320.9774  -857.6872 C0            1 RES     
   28110 C0        1119.0358 -1321.1708  -856.7600 C0            1 RES     
   28111 C0        1119.2259 -1320.5163  -855.3930 C0            1 RES     
   28112 H6        1130.3086 -1326.8847  -857.6500 H6            1 RES     
   28113 H6        1131.1056 -1328.4534  -857.9869 H6            1 RES     
   28114 H6        1130.6980 -1329.1754  -855.6864 H6            1 RES     
   28115 H6        1130.0390 -1327.5870  -855.2152 H6            1 RES     
   28116 H6        1128.7959 -1329.6483  -857.1295 H6            1 RES     
   28117 H6        1128.3366 -1329.2564  -855.4394 H6            1 RES     
   28118 H6        1127.9656 -1327.4760  -857.9203 H6            1 RES     
   28119 H6        1126.7455 -1328.2646  -856.8730 H6            1 RES     
   28120 H6        1127.7171 -1326.7220  -854.9226 H6            1 RES     
   28121 H6        1128.6614 -1325.9320  -856.2314 H6            1 RES     
   28122 H6        1126.4128 -1325.4942  -857.4383 H6            1 RES     
   28123 H6        1126.7341 -1324.5704  -855.9262 H6            1 RES     
   28124 H6        1125.0403 -1327.1488  -855.9305 H6            1 RES     
   28125 H6        1125.4239 -1326.0546  -854.5496 H6            1 RES     
   28126 H6        1124.2812 -1324.1829  -855.8123 H6            1 RES     
   28127 H6        1123.8158 -1325.4025  -857.0913 H6            1 RES     
   28128 H6        1122.7321 -1326.7464  -855.1574 H6            1 RES     
   28129 H6        1123.0465 -1325.3271  -854.1015 H6            1 RES     
   28130 H6        1121.1494 -1325.5560  -856.5471 H6            1 RES     
   28131 H6        1120.7585 -1325.4376  -854.8066 H6            1 RES     
   28132 H6        1121.7238 -1323.0535  -854.8087 H6            1 RES     
   28133 H6        1120.2121 -1323.3955  -855.6869 H6            1 RES     
   28134 H6        1122.9380 -1323.1060  -857.0301 H6            1 RES     
   28135 H6        1121.4365 -1323.5000  -857.9017 H6            1 RES     
   28136 H6        1122.3277 -1321.1414  -858.0108 H6            1 RES     
   28137 H6        1121.9581 -1320.9049  -856.2836 H6            1 RES     
   28138 H6        1120.3321 -1319.8862  -857.8849 H6            1 RES     
   28139 H6        1120.0210 -1321.4714  -858.6580 H6            1 RES     
   28140 H6        1118.1543 -1320.7043  -857.2506 H6            1 RES     
   28141 H6        1118.7854 -1322.2401  -856.6507 H6            1 RES     
   28142 H6        1119.4220 -1319.4297  -855.5116 H6            1 RES     
   28143 H6        1118.3041 -1320.6491  -854.7888 H6            1 RES     
   28144 H6        1120.0695 -1320.9818  -854.8439 H6            1 RES     
   28145 C0        1133.3565 -1328.0852  -856.2341 C0            1 RES     
   28146 C0        1133.2789 -1328.4168  -854.7235 C0            1 RES     
   28147 C0        1134.1763 -1329.5558  -854.1929 C0            1 RES     
   28148 C0        1133.7255 -1331.0122  -854.4659 C0            1 RES     
   28149 C0        1132.2517 -1331.2602  -854.0821 C0            1 RES     
   28150 C0        1131.8473 -1332.7350  -853.9436 C0            1 RES     
   28151 C0        1132.2763 -1333.3130  -852.5850 C0            1 RES     
   28152 C0        1131.7901 -1334.7587  -852.4050 C0            1 RES     
   28153 C0        1132.0661 -1335.2436  -850.9757 C0            1 RES     
   28154 C0        1131.8885 -1336.7534  -850.7059 C0            1 RES     
   28155 C0        1130.4899 -1337.3835  -850.8775 C0            1 RES     
   28156 C0        1130.1059 -1337.6864  -852.3403 C0            1 RES     
   28157 C0        1128.7532 -1338.4065  -852.5259 C0            1 RES     
   28158 C0        1128.7238 -1339.9408  -852.3139 C0            1 RES     
   28159 C0        1128.9529 -1340.4929  -850.8986 C0            1 RES     
   28160 C0        1127.9646 -1339.9352  -849.8764 C0            1 RES     
   28161 H6        1133.2751 -1329.0064  -856.8506 H6            1 RES     
   28162 H6        1134.3834 -1327.6833  -856.3861 H6            1 RES     
   28163 H6        1133.6280 -1327.5024  -854.2008 H6            1 RES     
   28164 H6        1132.2555 -1328.6161  -854.3788 H6            1 RES     
   28165 H6        1135.2282 -1329.4089  -854.5191 H6            1 RES     
   28166 H6        1134.1606 -1329.4519  -853.0847 H6            1 RES     
   28167 H6        1133.8725 -1331.2926  -855.5314 H6            1 RES     
   28168 H6        1134.3883 -1331.6566  -853.8504 H6            1 RES     
   28169 H6        1131.9807 -1330.7367  -853.1388 H6            1 RES     
   28170 H6        1131.6510 -1330.8407  -854.8999 H6            1 RES     
   28171 H6        1132.2308 -1333.3312  -854.8004 H6            1 RES     
   28172 H6        1130.7365 -1332.7763  -853.9646 H6            1 RES     
   28173 H6        1133.3803 -1333.2770  -852.4745 H6            1 RES     
   28174 H6        1131.8190 -1332.6856  -851.7863 H6            1 RES     
   28175 H6        1130.6968 -1334.7762  -852.5782 H6            1 RES     
   28176 H6        1132.3113 -1335.4042  -853.1440 H6            1 RES     
   28177 H6        1133.1295 -1335.0214  -850.7362 H6            1 RES     
   28178 H6        1131.4325 -1334.6604  -850.2704 H6            1 RES     
   28179 H6        1132.6287 -1337.3397  -851.2920 H6            1 RES     
   28180 H6        1132.1549 -1336.8753  -849.6319 H6            1 RES     
   28181 H6        1129.7184 -1336.7631  -850.3719 H6            1 RES     
   28182 H6        1130.5471 -1338.3381  -850.3396 H6            1 RES     
   28183 H6        1130.0017 -1336.7278  -852.8677 H6            1 RES     
   28184 H6        1130.9025 -1338.2678  -852.8529 H6            1 RES     
   28185 H6        1128.4915 -1338.2792  -853.6003 H6            1 RES     
   28186 H6        1127.9578 -1337.8940  -851.9445 H6            1 RES     
   28187 H6        1127.7169 -1340.2872  -852.6366 H6            1 RES     
   28188 H6        1129.4667 -1340.4106  -852.9950 H6            1 RES     
   28189 H6        1128.8229 -1341.5965  -850.9404 H6            1 RES     
   28190 H6        1129.9930 -1340.3268  -850.5685 H6            1 RES     
   28191 H6        1126.9222 -1340.1576  -850.1889 H6            1 RES     
   28192 H6        1128.1485 -1340.4079  -848.8888 H6            1 RES     
   28193 H6        1128.0871 -1338.8386  -849.7645 H6            1 RES     
   28194 C0        1137.7008 -1327.0862  -868.3651 C0            1 RES     
   28195 C1        1137.2804 -1326.1877  -867.1834 C1            1 RES     
   28196 C1        1137.8968 -1324.8450  -867.1873 C1            1 RES     
   28197 S2        1138.1361 -1324.4154  -865.4564 S2            1 RES     
   28198 C1        1136.6181 -1325.3644  -865.2134 C1            1 RES     
   28199 C1        1136.4669 -1326.3707  -866.1489 C1            1 RES     
   28200 C1        1138.9943 -1325.0870  -868.1119 C1            1 RES     
   28201 C1        1138.9125 -1326.2648  -868.7966 C1            1 RES     
   28202 C1        1139.9473 -1326.4188  -869.7368 C1            1 RES     
   28203 C1        1140.7934 -1325.2844  -869.7687 C1            1 RES     
   28204 S2        1140.2447 -1324.1376  -868.6426 S2            1 RES     
   28205 H3        1135.8541 -1327.2372  -865.9618 H3            1 RES     
   28206 H3        1140.0678 -1327.2897  -870.3690 H3            1 RES     
   28207 N4        1142.6309 -1326.1755  -871.1459 N4            1 RES     
   28208 C1        1143.7774 -1326.0744  -871.8819 C1            1 RES     
   28209 C1        1144.3528 -1324.8256  -872.1467 C1            1 RES     
   28210 C1        1143.7272 -1323.6912  -871.6451 C1            1 RES     
   28211 N4        1144.1807 -1322.4310  -871.8546 N4            1 RES     
   28212 S2        1143.0610 -1321.5177  -871.0547 S2            1 RES     
   28213 N4        1142.0159 -1322.6362  -870.4335 N4            1 RES     
   28214 C1        1142.5450 -1323.8115  -870.8651 C1            1 RES     
   28215 C1        1141.9966 -1325.0878  -870.6146 C1            1 RES     
   28216 H5        1144.2524 -1326.9702  -872.2605 H5            1 RES     
   28217 C0        1136.6257 -1327.0316  -869.4987 C0            1 RES     
   28218 C0        1135.2759 -1327.6344  -869.0965 C0            1 RES     
   28219 C0        1134.1364 -1327.4785  -870.1084 C0            1 RES     
   28220 C0        1133.7175 -1326.0345  -870.4274 C0            1 RES     
   28221 C0        1133.5442 -1325.1546  -869.1724 C0            1 RES     
   28222 C0        1132.8533 -1323.8233  -869.4916 C0            1 RES     
   28223 C0        1131.3327 -1324.0124  -869.6081 C0            1 RES     
   28224 C0        1130.6297 -1322.7093  -869.9902 C0            1 RES     
   28225 C0        1129.1103 -1322.8713  -869.8817 C0            1 RES     
   28226 C0        1128.2554 -1321.7535  -870.5115 C0            1 RES     
   28227 C0        1128.4608 -1320.3089  -870.0134 C0            1 RES     
   28228 C0        1129.6778 -1319.5995  -870.6482 C0            1 RES     
   28229 C0        1129.8749 -1318.1299  -870.2261 C0            1 RES     
   28230 C0        1129.0115 -1317.0612  -870.9386 C0            1 RES     
   28231 C0        1127.4950 -1317.0636  -870.6951 C0            1 RES     
   28232 C0        1127.1317 -1316.9574  -869.2153 C0            1 RES     
   28233 H6        1136.4631 -1325.9634  -869.7557 H6            1 RES     
   28234 H6        1137.0014 -1327.5406  -870.4130 H6            1 RES     
   28235 H6        1135.4119 -1328.7068  -868.9661 H6            1 RES     
   28236 H6        1134.9315 -1327.2021  -868.1390 H6            1 RES     
   28237 H6        1134.3807 -1328.0052  -871.0562 H6            1 RES     
   28238 H6        1133.2556 -1327.9890  -869.6580 H6            1 RES     
   28239 H6        1134.4706 -1325.5508  -871.0868 H6            1 RES     
   28240 H6        1132.7713 -1326.1101  -871.0018 H6            1 RES     
   28241 H6        1132.9713 -1325.6767  -868.3751 H6            1 RES     
   28242 H6        1134.5596 -1324.9383  -868.7764 H6            1 RES     
   28243 H6        1133.2959 -1323.3754  -870.4089 H6            1 RES     
   28244 H6        1133.0280 -1323.1220  -868.6463 H6            1 RES     
   28245 H6        1131.0775 -1324.7797  -870.3681 H6            1 RES     
   28246 H6        1130.9589 -1324.3598  -868.6185 H6            1 RES     
   28247 H6        1130.9481 -1321.9178  -869.2819 H6            1 RES     
   28248 H6        1130.9236 -1322.4485  -871.0304 H6            1 RES     
   28249 H6        1128.8093 -1323.8092  -870.3990 H6            1 RES     
   28250 H6        1128.8500 -1322.9813  -868.8050 H6            1 RES     
   28251 H6        1128.3499 -1321.7709  -871.6187 H6            1 RES     
   28252 H6        1127.2060 -1322.0360  -870.2707 H6            1 RES     
   28253 H6        1128.4979 -1320.2821  -868.9028 H6            1 RES     
   28254 H6        1127.5564 -1319.7738  -870.3271 H6            1 RES     
   28255 H6        1130.5896 -1320.1178  -870.3203 H6            1 RES     
   28256 H6        1129.6436 -1319.6610  -871.7576 H6            1 RES     
   28257 H6        1130.9181 -1317.8711  -870.5162 H6            1 RES     
   28258 H6        1129.8219 -1318.0358  -869.1210 H6            1 RES     
   28259 H6        1129.3931 -1316.0711  -870.6049 H6            1 RES     
   28260 H6        1129.1878 -1317.1299  -872.0345 H6            1 RES     
   28261 H6        1127.0654 -1316.1853  -871.2237 H6            1 RES     
   28262 H6        1127.0201 -1317.9487  -871.1523 H6            1 RES     
   28263 H6        1127.5678 -1316.0343  -868.7783 H6            1 RES     
   28264 H6        1126.0275 -1316.9160  -869.1084 H6            1 RES     
   28265 H6        1127.5011 -1317.8381  -868.6517 H6            1 RES     
   28266 C0        1138.1629 -1328.5532  -867.9839 C0            1 RES     
   28267 C0        1137.3097 -1329.2625  -866.9038 C0            1 RES     
   28268 C0        1137.6029 -1330.7523  -866.6232 C0            1 RES     
   28269 C0        1137.0638 -1331.7937  -867.6350 C0            1 RES     
   28270 C0        1135.5699 -1331.5877  -867.9611 C0            1 RES     
   28271 C0        1134.8701 -1332.7833  -868.6234 C0            1 RES     
   28272 C0        1134.4755 -1333.8504  -867.5891 C0            1 RES     
   28273 C0        1133.6917 -1335.0028  -868.2345 C0            1 RES     
   28274 C0        1133.1503 -1335.9526  -867.1579 C0            1 RES     
   28275 C0        1132.5753 -1337.3007  -867.6437 C0            1 RES     
   28276 C0        1131.3369 -1337.2960  -868.5650 C0            1 RES     
   28277 C0        1131.6484 -1336.9927  -870.0448 C0            1 RES     
   28278 C0        1130.4384 -1337.0803  -870.9993 C0            1 RES     
   28279 C0        1130.0132 -1338.4871  -871.4893 C0            1 RES     
   28280 C0        1129.4253 -1339.4750  -870.4701 C0            1 RES     
   28281 C0        1128.1987 -1338.9225  -869.7469 C0            1 RES     
   28282 H6        1138.2087 -1329.1557  -868.9169 H6            1 RES     
   28283 H6        1139.1933 -1328.5284  -867.5635 H6            1 RES     
   28284 H6        1137.5368 -1328.7363  -865.9536 H6            1 RES     
   28285 H6        1136.2296 -1329.1664  -867.0770 H6            1 RES     
   28286 H6        1138.6884 -1330.9105  -866.4465 H6            1 RES     
   28287 H6        1137.0799 -1330.9811  -865.6676 H6            1 RES     
   28288 H6        1137.6446 -1331.7813  -868.5827 H6            1 RES     
   28289 H6        1137.2118 -1332.7860  -867.1587 H6            1 RES     
   28290 H6        1134.9886 -1331.3041  -867.0560 H6            1 RES     
   28291 H6        1135.5280 -1330.7571  -868.6781 H6            1 RES     
   28292 H6        1135.4922 -1333.1977  -869.4468 H6            1 RES     
   28293 H6        1133.9208 -1332.4082  -869.0638 H6            1 RES     
   28294 H6        1135.3753 -1334.2542  -867.0794 H6            1 RES     
   28295 H6        1133.8242 -1333.3645  -866.8274 H6            1 RES     
   28296 H6        1132.8347 -1334.5681  -868.7843 H6            1 RES     
   28297 H6        1134.3658 -1335.5456  -868.9312 H6            1 RES     
   28298 H6        1133.9899 -1336.2150  -866.4769 H6            1 RES     
   28299 H6        1132.3840 -1335.4138  -866.5567 H6            1 RES     
   28300 H6        1133.3754 -1337.9161  -868.1087 H6            1 RES     
   28301 H6        1132.2663 -1337.8218  -866.7097 H6            1 RES     
   28302 H6        1130.5551 -1336.6153  -868.1634 H6            1 RES     
   28303 H6        1130.9429 -1338.3184  -868.5063 H6            1 RES     
   28304 H6        1131.9979 -1335.9528  -870.1103 H6            1 RES     
   28305 H6        1132.4626 -1337.6461  -870.4263 H6            1 RES     
   28306 H6        1130.7528 -1336.5560  -871.9295 H6            1 RES     
   28307 H6        1129.5789 -1336.5084  -870.5898 H6            1 RES     
   28308 H6        1129.2377 -1338.3304  -872.2716 H6            1 RES     
   28309 H6        1130.8837 -1338.9727  -871.9822 H6            1 RES     
   28310 H6        1129.1192 -1340.3899  -871.0230 H6            1 RES     
   28311 H6        1130.1906 -1339.8052  -869.7465 H6            1 RES     
   28312 H6        1127.4121 -1338.6464  -870.4808 H6            1 RES     
   28313 H6        1127.7921 -1339.6979  -869.0642 H6            1 RES     
   28314 H6        1128.4636 -1338.0317  -869.1417 H6            1 RES     
   28315 C0        1147.8778 -1325.6855  -876.0106 C0            1 RES     
   28316 C1        1147.1277 -1325.0864  -874.8028 C1            1 RES     
   28317 C1        1147.9189 -1324.1244  -874.0082 C1            1 RES     
   28318 S2        1147.3799 -1324.3419  -872.3053 S2            1 RES     
   28319 C1        1145.7789 -1324.6974  -873.0630 C1            1 RES     
   28320 C1        1145.9008 -1325.2556  -874.3218 C1            1 RES     
   28321 C1        1149.2539 -1324.4665  -874.4760 C1            1 RES     
   28322 C1        1149.2819 -1325.2753  -875.5750 C1            1 RES     
   28323 C1        1150.5877 -1325.5123  -876.0411 C1            1 RES     
   28324 C1        1151.5484 -1324.8099  -875.2747 C1            1 RES     
   28325 S2        1150.7632 -1323.9283  -874.0537 S2            1 RES     
   28326 H3        1145.1178 -1325.8522  -874.7603 H3            1 RES     
   28327 H3        1150.8236 -1326.1394  -876.8918 H3            1 RES     
   28328 N4        1153.6071 -1325.8623  -876.1240 N4            1 RES     
   28329 C1        1154.9606 -1325.9749  -876.2714 C1            1 RES     
   28330 C1        1155.8230 -1325.0041  -875.7477 C1            1 RES     
   28331 C1        1155.2683 -1323.9214  -875.0769 C1            1 RES     
   28332 N4        1156.0021 -1322.9123  -874.5471 N4            1 RES     
   28333 S2        1154.8385 -1321.9324  -873.9041 S2            1 RES     
   28334 N4        1153.4287 -1322.7216  -874.2487 N4            1 RES     
   28335 C1        1153.8594 -1323.8257  -874.9143 C1            1 RES     
   28336 C1        1153.0215 -1324.8265  -875.4517 C1            1 RES     
   28337 H5        1155.3741 -1326.8280  -876.7936 H5            1 RES     
   28338 C0        1147.5096 -1324.9110  -877.3177 C0            1 RES     
   28339 C0        1146.0440 -1325.0691  -877.7348 C0            1 RES     
   28340 C0        1145.5822 -1324.2175  -878.9214 C0            1 RES     
   28341 C0        1145.6570 -1322.6953  -878.7221 C0            1 RES     
   28342 C0        1145.0799 -1322.2244  -877.3714 C0            1 RES     
   28343 C0        1144.8999 -1320.7023  -877.3197 C0            1 RES     
   28344 C0        1143.6164 -1320.2800  -878.0517 C0            1 RES     
   28345 C0        1143.4506 -1318.7599  -878.0684 C0            1 RES     
   28346 C0        1142.0659 -1318.3803  -878.6022 C0            1 RES     
   28347 C0        1141.8524 -1316.8955  -878.9584 C0            1 RES     
   28348 C0        1142.0713 -1315.8412  -877.8549 C0            1 RES     
   28349 C0        1143.5553 -1315.4721  -877.6334 C0            1 RES     
   28350 C0        1143.8083 -1314.3704  -876.5851 C0            1 RES     
   28351 C0        1143.6175 -1312.9015  -877.0338 C0            1 RES     
   28352 C0        1142.2019 -1312.4217  -877.3868 C0            1 RES     
   28353 C0        1141.2039 -1312.6309  -876.2496 C0            1 RES     
   28354 H6        1147.7012 -1323.8326  -877.1339 H6            1 RES     
   28355 H6        1148.1695 -1325.2286  -878.1544 H6            1 RES     
   28356 H6        1145.8894 -1326.1043  -878.0348 H6            1 RES     
   28357 H6        1145.3754 -1324.8435  -876.8836 H6            1 RES     
   28358 H6        1146.1420 -1324.4928  -879.8413 H6            1 RES     
   28359 H6        1144.5131 -1324.4794  -879.0880 H6            1 RES     
   28360 H6        1146.7114 -1322.3489  -878.7865 H6            1 RES     
   28361 H6        1145.1065 -1322.2476  -879.5750 H6            1 RES     
   28362 H6        1144.1063 -1322.7111  -877.1435 H6            1 RES     
   28363 H6        1145.8023 -1322.5206  -876.5809 H6            1 RES     
   28364 H6        1145.8047 -1320.1983  -877.7261 H6            1 RES     
   28365 H6        1144.7818 -1320.3956  -876.2572 H6            1 RES     
   28366 H6        1143.6118 -1320.6407  -879.1011 H6            1 RES     
   28367 H6        1142.7555 -1320.7416  -877.5175 H6            1 RES     
   28368 H6        1143.5387 -1318.3857  -877.0284 H6            1 RES     
   28369 H6        1144.2504 -1318.3306  -878.7106 H6            1 RES     
   28370 H6        1141.8729 -1318.9464  -879.5404 H6            1 RES     
   28371 H6        1141.3068 -1318.6994  -877.8532 H6            1 RES     
   28372 H6        1142.4593 -1316.6194  -879.8476 H6            1 RES     
   28373 H6        1140.7835 -1316.8329  -879.2627 H6            1 RES     
   28374 H6        1141.5774 -1316.1581  -876.9110 H6            1 RES     
   28375 H6        1141.5509 -1314.9461  -878.2163 H6            1 RES     
   28376 H6        1144.0786 -1316.3593  -877.2505 H6            1 RES     
   28377 H6        1144.0444 -1315.1873  -878.5901 H6            1 RES     
   28378 H6        1144.8909 -1314.4372  -876.3341 H6            1 RES     
   28379 H6        1143.2530 -1314.5933  -875.6498 H6            1 RES     
   28380 H6        1143.9775 -1312.2646  -876.1959 H6            1 RES     
   28381 H6        1144.2790 -1312.7040  -877.9056 H6            1 RES     
   28382 H6        1142.2576 -1311.3336  -877.6063 H6            1 RES     
   28383 H6        1141.8414 -1312.8955  -878.3161 H6            1 RES     
   28384 H6        1141.5481 -1312.1035  -875.3349 H6            1 RES     
   28385 H6        1140.2151 -1312.2227  -876.5464 H6            1 RES     
   28386 H6        1141.0793 -1313.7096  -876.0241 H6            1 RES     
   28387 C0        1147.8059 -1327.2621  -876.1525 C0            1 RES     
   28388 C0        1146.4206 -1327.8950  -875.8727 C0            1 RES     
   28389 C0        1146.2476 -1329.4005  -876.1692 C0            1 RES     
   28390 C0        1146.0669 -1329.8256  -877.6476 C0            1 RES     
   28391 C0        1144.9834 -1329.0022  -878.3747 C0            1 RES     
   28392 C0        1144.4680 -1329.6078  -879.6883 C0            1 RES     
   28393 C0        1143.4279 -1330.7107  -879.4318 C0            1 RES     
   28394 C0        1142.8408 -1331.2523  -880.7435 C0            1 RES     
   28395 C0        1141.6775 -1332.2105  -880.4555 C0            1 RES     
   28396 C0        1141.1549 -1333.0482  -881.6426 C0            1 RES     
   28397 C0        1140.5355 -1332.3208  -882.8549 C0            1 RES     
   28398 C0        1141.5689 -1331.7309  -883.8364 C0            1 RES     
   28399 C0        1140.9719 -1331.0855  -885.1051 C0            1 RES     
   28400 C0        1140.5682 -1332.0285  -886.2660 C0            1 RES     
   28401 C0        1139.3850 -1332.9865  -886.0587 C0            1 RES     
   28402 C0        1138.0963 -1332.2637  -885.6722 C0            1 RES     
   28403 H6        1148.1738 -1327.5362  -877.1649 H6            1 RES     
   28404 H6        1148.4922 -1327.7401  -875.4180 H6            1 RES     
   28405 H6        1146.2633 -1327.7929  -874.7790 H6            1 RES     
   28406 H6        1145.5971 -1327.3649  -876.3693 H6            1 RES     
   28407 H6        1147.0621 -1329.9885  -875.6944 H6            1 RES     
   28408 H6        1145.2983 -1329.6930  -875.6669 H6            1 RES     
   28409 H6        1147.0198 -1329.7477  -878.2145 H6            1 RES     
   28410 H6        1145.7728 -1330.8962  -877.6228 H6            1 RES     
   28411 H6        1144.1081 -1328.8060  -877.7168 H6            1 RES     
   28412 H6        1145.4520 -1328.0423  -878.6289 H6            1 RES     
   28413 H6        1145.3138 -1329.9585  -880.3194 H6            1 RES     
   28414 H6        1143.9385 -1328.8002  -880.2391 H6            1 RES     
   28415 H6        1143.8762 -1331.5459  -878.8539 H6            1 RES     
   28416 H6        1142.6004 -1330.2680  -878.8318 H6            1 RES     
   28417 H6        1142.4542 -1330.3937  -881.3258 H6            1 RES     
   28418 H6        1143.6456 -1331.7727  -881.3057 H6            1 RES     
   28419 H6        1142.0199 -1332.9493  -879.6976 H6            1 RES     
   28420 H6        1140.8387 -1331.6319  -880.0078 H6            1 RES     
   28421 H6        1141.9426 -1333.7470  -881.9979 H6            1 RES     
   28422 H6        1140.3423 -1333.6706  -881.2048 H6            1 RES     
   28423 H6        1139.8065 -1331.5524  -882.5175 H6            1 RES     
   28424 H6        1139.9711 -1333.0972  -883.3864 H6            1 RES     
   28425 H6        1142.1020 -1330.9207  -883.3192 H6            1 RES     
   28426 H6        1142.3214 -1332.4929  -884.1337 H6            1 RES     
   28427 H6        1141.7879 -1330.4634  -885.5365 H6            1 RES     
   28428 H6        1140.1513 -1330.3872  -884.8359 H6            1 RES     
   28429 H6        1140.3085 -1331.3768  -887.1295 H6            1 RES     
   28430 H6        1141.4548 -1332.6301  -886.5634 H6            1 RES     
   28431 H6        1139.2091 -1333.5200  -887.0183 H6            1 RES     
   28432 H6        1139.6303 -1333.7706  -885.3215 H6            1 RES     
   28433 H6        1137.8272 -1331.5166  -886.4488 H6            1 RES     
   28434 H6        1137.2707 -1333.0010  -885.5866 H6            1 RES     
   28435 H6        1138.2072 -1331.7517  -884.6946 H6            1 RES     
   28436 C0        1160.5221 -1325.9129  -878.0256 C0            1 RES     
   28437 C1        1159.4188 -1325.4654  -877.0442 C1            1 RES     
   28438 C1        1159.9038 -1325.1385  -875.6875 C1            1 RES     
   28439 S2        1158.5857 -1325.6353  -874.5678 S2            1 RES     
   28440 C1        1157.5075 -1325.1417  -875.9308 C1            1 RES     
   28441 C1        1158.1051 -1325.3086  -877.1661 C1            1 RES     
   28442 C1        1161.2042 -1325.7904  -875.7334 C1            1 RES     
   28443 C1        1161.5962 -1326.1914  -876.9777 C1            1 RES     
   28444 C1        1162.8913 -1326.7402  -876.9879 C1            1 RES     
   28445 C1        1163.4844 -1326.6962  -875.7034 C1            1 RES     
   28446 S2        1162.3998 -1325.9903  -874.6034 S2            1 RES     
   28447 H3        1157.5280 -1325.4206  -878.0693 H3            1 RES     
   28448 H3        1163.3780 -1327.1297  -877.8734 H3            1 RES     
   28449 N4        1165.4488 -1328.1272  -876.1039 N4            1 RES     
   28450 C1        1166.6566 -1328.6773  -875.7800 C1            1 RES     
   28451 C1        1167.3339 -1328.2889  -874.6177 C1            1 RES     
   28452 C1        1166.7488 -1327.3277  -873.8030 C1            1 RES     
   28453 N4        1167.3204 -1326.8603  -872.6663 N4            1 RES     
   28454 S2        1166.2071 -1325.7594  -872.1407 S2            1 RES     
   28455 N4        1165.0108 -1325.8403  -873.2771 N4            1 RES     
   28456 C1        1165.4830 -1326.7767  -874.1418 C1            1 RES     
   28457 C1        1164.8275 -1327.1965  -875.3193 C1            1 RES     
   28458 H5        1167.0944 -1329.4280  -876.4252 H5            1 RES     
   28459 C0        1160.9824 -1324.7096  -878.9111 C0            1 RES     
   28460 C0        1159.8958 -1324.1914  -879.8585 C0            1 RES     
   28461 C0        1160.2333 -1322.9213  -880.6456 C0            1 RES     
   28462 C0        1160.4985 -1321.6629  -879.8039 C0            1 RES     
   28463 C0        1159.4501 -1321.4339  -878.6959 C0            1 RES     
   28464 C0        1159.5674 -1320.0391  -878.0694 C0            1 RES     
   28465 C0        1158.9003 -1318.9820  -878.9633 C0            1 RES     
   28466 C0        1159.0622 -1317.5740  -878.3890 C0            1 RES     
   28467 C0        1158.2053 -1316.5761  -879.1742 C0            1 RES     
   28468 C0        1158.4818 -1315.0819  -878.9133 C0            1 RES     
   28469 C0        1158.3470 -1314.5556  -877.4704 C0            1 RES     
   28470 C0        1159.5839 -1314.8366  -876.5880 C0            1 RES     
   28471 C0        1159.5139 -1314.2645  -875.1582 C0            1 RES     
   28472 C0        1159.8509 -1312.7654  -874.9723 C0            1 RES     
   28473 C0        1158.9006 -1311.7209  -875.5763 C0            1 RES     
   28474 C0        1157.4614 -1311.8761  -875.0887 C0            1 RES     
   28475 H6        1161.2686 -1323.8811  -878.2290 H6            1 RES     
   28476 H6        1161.8858 -1324.9847  -879.4981 H6            1 RES     
   28477 H6        1159.7053 -1324.9609  -880.6049 H6            1 RES     
   28478 H6        1158.9601 -1323.9986  -879.3020 H6            1 RES     
   28479 H6        1161.0990 -1323.0980  -881.3200 H6            1 RES     
   28480 H6        1159.3464 -1322.7133  -881.2854 H6            1 RES     
   28481 H6        1161.4997 -1321.7228  -879.3246 H6            1 RES     
   28482 H6        1160.5219 -1320.8153  -880.5196 H6            1 RES     
   28483 H6        1158.4125 -1321.5754  -879.0702 H6            1 RES     
   28484 H6        1159.6331 -1322.1920  -877.9045 H6            1 RES     
   28485 H6        1160.6347 -1319.8046  -877.8604 H6            1 RES     
   28486 H6        1159.0180 -1320.0380  -877.1023 H6            1 RES     
   28487 H6        1159.3279 -1318.9900  -879.9873 H6            1 RES     
   28488 H6        1157.8177 -1319.2327  -879.0324 H6            1 RES     
   28489 H6        1158.7133 -1317.5819  -877.3366 H6            1 RES     
   28490 H6        1160.1378 -1317.2978  -878.4454 H6            1 RES     
   28491 H6        1158.3784 -1316.7295  -880.2625 H6            1 RES     
   28492 H6        1157.1350 -1316.8014  -878.9675 H6            1 RES     
   28493 H6        1159.4804 -1314.7979  -879.3098 H6            1 RES     
   28494 H6        1157.7240 -1314.5468  -879.5284 H6            1 RES     
   28495 H6        1157.4109 -1314.9330  -877.0048 H6            1 RES     
   28496 H6        1158.2482 -1313.4686  -877.5774 H6            1 RES     
   28497 H6        1159.6763 -1315.9239  -876.4587 H6            1 RES     
   28498 H6        1160.5157 -1314.4819  -877.0797 H6            1 RES     
   28499 H6        1160.3080 -1314.7926  -874.5838 H6            1 RES     
   28500 H6        1158.5477 -1314.5339  -874.6820 H6            1 RES     
   28501 H6        1159.8826 -1312.5810  -873.8758 H6            1 RES     
   28502 H6        1160.8727 -1312.5758  -875.3680 H6            1 RES     
   28503 H6        1159.2650 -1310.7156  -875.2733 H6            1 RES     
   28504 H6        1158.9439 -1311.7342  -876.6790 H6            1 RES     
   28505 H6        1157.4216 -1311.8053  -873.9812 H6            1 RES     
   28506 H6        1156.8359 -1311.0672  -875.5211 H6            1 RES     
   28507 H6        1157.0370 -1312.8497  -875.4079 H6            1 RES     
   28508 C0        1160.2214 -1327.2373  -878.8420 C0            1 RES     
   28509 C0        1158.7780 -1327.3729  -879.3860 C0            1 RES     
   28510 C0        1158.4786 -1328.5521  -880.3369 C0            1 RES     
   28511 C0        1158.9479 -1328.4263  -881.8075 C0            1 RES     
   28512 C0        1158.5277 -1327.0895  -882.4533 C0            1 RES     
   28513 C0        1158.5965 -1327.0495  -883.9868 C0            1 RES     
   28514 C0        1157.3683 -1327.7194  -884.6247 C0            1 RES     
   28515 C0        1157.3872 -1327.5972  -886.1556 C0            1 RES     
   28516 C0        1156.0667 -1328.1036  -886.7506 C0            1 RES     
   28517 C0        1156.0235 -1328.3032  -888.2810 C0            1 RES     
   28518 C0        1156.2143 -1327.0777  -889.1999 C0            1 RES     
   28519 C0        1157.6834 -1326.6451  -889.3833 C0            1 RES     
   28520 C0        1157.9042 -1325.4836  -890.3757 C0            1 RES     
   28521 C0        1157.9300 -1325.8273  -891.8860 C0            1 RES     
   28522 C0        1156.6310 -1326.3025  -892.5550 C0            1 RES     
   28523 C0        1155.4832 -1325.3074  -892.3970 C0            1 RES     
   28524 H6        1160.9672 -1327.3157  -879.6624 H6            1 RES     
   28525 H6        1160.3650 -1328.1262  -878.1876 H6            1 RES     
   28526 H6        1158.1403 -1327.5473  -878.4948 H6            1 RES     
   28527 H6        1158.4133 -1326.4578  -879.8712 H6            1 RES     
   28528 H6        1158.8346 -1329.5086  -879.8976 H6            1 RES     
   28529 H6        1157.3684 -1328.6118  -880.3925 H6            1 RES     
   28530 H6        1160.0502 -1328.5385  -881.8957 H6            1 RES     
   28531 H6        1158.4757 -1329.2719  -882.3512 H6            1 RES     
   28532 H6        1157.5018 -1326.7904  -882.1447 H6            1 RES     
   28533 H6        1159.2375 -1326.3380  -882.0831 H6            1 RES     
   28534 H6        1159.5544 -1327.4822  -884.3500 H6            1 RES     
   28535 H6        1158.5635 -1325.9808  -884.2912 H6            1 RES     
   28536 H6        1157.3134 -1328.7908  -884.3393 H6            1 RES     
   28537 H6        1156.4589 -1327.2030  -884.2413 H6            1 RES     
   28538 H6        1157.5016 -1326.5263  -886.4121 H6            1 RES     
   28539 H6        1158.2439 -1328.1851  -886.5491 H6            1 RES     
   28540 H6        1155.8537 -1329.1043  -886.3137 H6            1 RES     
   28541 H6        1155.2468 -1327.4181  -886.4394 H6            1 RES     
   28542 H6        1156.7321 -1329.1033  -888.5858 H6            1 RES     
   28543 H6        1154.9971 -1328.6851  -888.4809 H6            1 RES     
   28544 H6        1155.5782 -1326.2323  -888.8589 H6            1 RES     
   28545 H6        1155.8338 -1327.4010  -890.1770 H6            1 RES     
   28546 H6        1158.0504 -1326.2764  -888.4151 H6            1 RES     
   28547 H6        1158.3217 -1327.5052  -889.6798 H6            1 RES     
   28548 H6        1158.9305 -1325.1050  -890.1693 H6            1 RES     
   28549 H6        1157.2087 -1324.6465  -890.1544 H6            1 RES     
   28550 H6        1158.2472 -1324.9026  -892.4172 H6            1 RES     
   28551 H6        1158.7144 -1326.5947  -892.0652 H6            1 RES     
   28552 H6        1156.8353 -1326.4269  -893.6409 H6            1 RES     
   28553 H6        1156.3360 -1327.3015  -892.1900 H6            1 RES     
   28554 H6        1155.7694 -1324.3207  -892.8191 H6            1 RES     
   28555 H6        1154.5916 -1325.6824  -892.9421 H6            1 RES     
   28556 H6        1155.2105 -1325.1835  -891.3292 H6            1 RES     
   28557 C0        1172.2706 -1330.1365  -875.1755 C0            1 RES     
   28558 C1        1170.9436 -1329.6274  -874.5751 C1            1 RES     
   28559 C1        1170.7740 -1329.9152  -873.1359 C1            1 RES     
   28560 S2        1169.0130 -1330.2023  -872.9024 S2            1 RES     
   28561 C1        1168.8373 -1328.9715  -874.2132 C1            1 RES     
   28562 C1        1169.9072 -1328.9734  -875.0885 C1            1 RES     
   28563 C1        1171.7828 -1330.9521  -872.9775 C1            1 RES     
   28564 C1        1172.6353 -1331.0831  -874.0352 C1            1 RES     
   28565 C1        1173.6426 -1332.0375  -873.8052 C1            1 RES     
   28566 C1        1173.5450 -1332.5934  -872.5070 C1            1 RES     
   28567 S2        1172.2276 -1331.8979  -871.6914 S2            1 RES     
   28568 H3        1169.8230 -1328.5958  -876.0943 H3            1 RES     
   28569 H3        1174.4070 -1332.2986  -874.5265 H3            1 RES     
   28570 N4        1175.1404 -1334.4565  -872.7321 N4            1 RES     
   28571 C1        1175.9129 -1335.4787  -872.2580 C1            1 RES     
   28572 C1        1176.0129 -1335.7251  -870.8833 C1            1 RES     
   28573 C1        1175.3094 -1334.9023  -870.0126 C1            1 RES     
   28574 N4        1175.3465 -1335.0329  -868.6639 N4            1 RES     
   28575 S2        1174.3560 -1333.8089  -868.1655 S2            1 RES     
   28576 N4        1173.8590 -1333.1090  -869.5770 N4            1 RES     
   28577 C1        1174.4945 -1333.8539  -870.5198 C1            1 RES     
   28578 C1        1174.4143 -1333.6387  -871.9125 C1            1 RES     
   28579 H5        1176.4502 -1336.1115  -872.9525 H5            1 RES     
   28580 C0        1173.3224 -1328.9811  -875.2268 C0            1 RES     
   28581 C0        1172.9456 -1327.8478  -876.1863 C0            1 RES     
   28582 C0        1173.8582 -1326.6175  -876.1725 C0            1 RES     
   28583 C0        1173.9278 -1325.8506  -874.8423 C0            1 RES     
   28584 C0        1172.5448 -1325.5919  -874.2103 C0            1 RES     
   28585 C0        1172.6172 -1324.5874  -873.0539 C0            1 RES     
   28586 C0        1172.6790 -1323.1470  -873.5860 C0            1 RES     
   28587 C0        1172.8172 -1322.1316  -872.4510 C0            1 RES     
   28588 C0        1172.6529 -1320.7063  -872.9876 C0            1 RES     
   28589 C0        1173.0558 -1319.5643  -872.0333 C0            1 RES     
   28590 C0        1172.3530 -1319.4750  -870.6639 C0            1 RES     
   28591 C0        1172.9358 -1320.4345  -869.6022 C0            1 RES     
   28592 C0        1172.3036 -1320.3247  -868.2004 C0            1 RES     
   28593 C0        1172.7952 -1319.1784  -867.2840 C0            1 RES     
   28594 C0        1172.4733 -1317.7312  -867.6850 C0            1 RES     
   28595 C0        1170.9774 -1317.4864  -867.8730 C0            1 RES     
   28596 H6        1173.4026 -1328.5547  -874.2044 H6            1 RES     
   28597 H6        1174.3232 -1329.3810  -875.5003 H6            1 RES     
   28598 H6        1172.9895 -1328.2381  -877.2017 H6            1 RES     
   28599 H6        1171.9156 -1327.4997  -875.9849 H6            1 RES     
   28600 H6        1174.8877 -1326.8911  -876.4900 H6            1 RES     
   28601 H6        1173.4449 -1325.9217  -876.9368 H6            1 RES     
   28602 H6        1174.5445 -1326.4102  -874.1058 H6            1 RES     
   28603 H6        1174.4550 -1324.8999  -875.0643 H6            1 RES     
   28604 H6        1171.8075 -1325.2279  -874.9591 H6            1 RES     
   28605 H6        1172.1756 -1326.5613  -873.8121 H6            1 RES     
   28606 H6        1173.4771 -1324.8314  -872.3914 H6            1 RES     
   28607 H6        1171.6846 -1324.6704  -872.4537 H6            1 RES     
   28608 H6        1173.5333 -1323.0087  -874.2807 H6            1 RES     
   28609 H6        1171.7360 -1322.9528  -874.1453 H6            1 RES     
   28610 H6        1172.0136 -1322.3210  -871.7107 H6            1 RES     
   28611 H6        1173.8192 -1322.2637  -871.9872 H6            1 RES     
   28612 H6        1173.2916 -1320.5845  -873.8904 H6            1 RES     
   28613 H6        1171.5936 -1320.5753  -873.3033 H6            1 RES     
   28614 H6        1174.1560 -1319.5613  -871.8757 H6            1 RES     
   28615 H6        1172.8050 -1318.6339  -872.5905 H6            1 RES     
   28616 H6        1171.2552 -1319.6037  -870.7812 H6            1 RES     
   28617 H6        1172.5311 -1318.4475  -870.3247 H6            1 RES     
   28618 H6        1172.7414 -1321.4666  -869.9254 H6            1 RES     
   28619 H6        1174.0379 -1320.3167  -869.5177 H6            1 RES     
   28620 H6        1172.6064 -1321.2501  -867.6607 H6            1 RES     
   28621 H6        1171.1959 -1320.3501  -868.2740 H6            1 RES     
   28622 H6        1172.3340 -1319.3499  -866.2864 H6            1 RES     
   28623 H6        1173.8964 -1319.2675  -867.1577 H6            1 RES     
   28624 H6        1172.8363 -1317.0655  -866.8723 H6            1 RES     
   28625 H6        1173.0351 -1317.4340  -868.5873 H6            1 RES     
   28626 H6        1170.4276 -1317.7354  -866.9408 H6            1 RES     
   28627 H6        1170.8058 -1316.4163  -868.1138 H6            1 RES     
   28628 H6        1170.5769 -1318.0974  -868.7074 H6            1 RES     
   28629 C0        1172.1456 -1330.9560  -876.5259 C0            1 RES     
   28630 C0        1171.1431 -1330.3888  -877.5607 C0            1 RES     
   28631 C0        1171.1116 -1331.0410  -878.9600 C0            1 RES     
   28632 C0        1172.2412 -1330.6683  -879.9520 C0            1 RES     
   28633 C0        1172.4503 -1329.1441  -880.0693 C0            1 RES     
   28634 C0        1173.2501 -1328.6824  -881.2961 C0            1 RES     
   28635 C0        1172.3728 -1328.6378  -882.5580 C0            1 RES     
   28636 C0        1173.1447 -1328.0861  -883.7658 C0            1 RES     
   28637 C0        1172.1996 -1327.8761  -884.9561 C0            1 RES     
   28638 C0        1172.8555 -1327.5861  -886.3235 C0            1 RES     
   28639 C0        1173.6967 -1326.3028  -886.4913 C0            1 RES     
   28640 C0        1175.1268 -1326.4031  -885.9223 C0            1 RES     
   28641 C0        1176.0165 -1325.1657  -886.1674 C0            1 RES     
   28642 C0        1176.6937 -1325.0340  -887.5544 C0            1 RES     
   28643 C0        1175.8086 -1324.7826  -888.7848 C0            1 RES     
   28644 C0        1174.9436 -1323.5311  -888.6484 C0            1 RES     
   28645 H6        1173.1613 -1331.0560  -876.9660 H6            1 RES     
   28646 H6        1171.7827 -1331.9863  -876.3113 H6            1 RES     
   28647 H6        1170.1368 -1330.5723  -877.1304 H6            1 RES     
   28648 H6        1171.2408 -1329.3046  -877.7049 H6            1 RES     
   28649 H6        1171.0204 -1332.1450  -878.8746 H6            1 RES     
   28650 H6        1170.1758 -1330.6720  -879.4366 H6            1 RES     
   28651 H6        1173.2056 -1331.1438  -879.6705 H6            1 RES     
   28652 H6        1171.9321 -1331.0826  -880.9349 H6            1 RES     
   28653 H6        1171.4823 -1328.5962  -880.0607 H6            1 RES     
   28654 H6        1173.0275 -1328.8484  -879.1832 H6            1 RES     
   28655 H6        1174.1599 -1329.3073  -881.4317 H6            1 RES     
   28656 H6        1173.5755 -1327.6368  -881.1040 H6            1 RES     
   28657 H6        1171.9808 -1329.6481  -882.7990 H6            1 RES     
   28658 H6        1171.5112 -1327.9626  -882.3523 H6            1 RES     
   28659 H6        1173.5738 -1327.1066  -883.4794 H6            1 RES     
   28660 H6        1173.9521 -1328.8023  -884.0296 H6            1 RES     
   28661 H6        1171.6135 -1328.8108  -885.0993 H6            1 RES     
   28662 H6        1171.4820 -1327.0630  -884.7053 H6            1 RES     
   28663 H6        1173.4523 -1328.4617  -886.6585 H6            1 RES     
   28664 H6        1171.9976 -1327.4898  -887.0265 H6            1 RES     
   28665 H6        1173.1534 -1325.4243  -886.0806 H6            1 RES     
   28666 H6        1173.7750 -1326.1618  -887.5766 H6            1 RES     
   28667 H6        1175.0500 -1326.4965  -884.8299 H6            1 RES     
   28668 H6        1175.6479 -1327.3085  -886.3018 H6            1 RES     
   28669 H6        1176.8705 -1325.2667  -885.4606 H6            1 RES     
   28670 H6        1175.4780 -1324.2376  -885.8810 H6            1 RES     
   28671 H6        1177.3994 -1324.1768  -887.4837 H6            1 RES     
   28672 H6        1177.3019 -1325.9454  -887.7439 H6            1 RES     
   28673 H6        1176.4785 -1324.6473  -889.6619 H6            1 RES     
   28674 H6        1175.1869 -1325.6647  -889.0167 H6            1 RES     
   28675 H6        1175.5827 -1322.6399  -888.4722 H6            1 RES     
   28676 H6        1174.3676 -1323.3764  -889.5849 H6            1 RES     
   28677 H6        1174.2237 -1323.6366  -887.8114 H6            1 RES     
   28678 C0        1180.1480 -1338.9949  -870.3316 C0            1 RES     
   28679 C1        1178.8236 -1338.2376  -870.1019 C1            1 RES     
   28680 C1        1177.9342 -1338.8535  -869.0956 C1            1 RES     
   28681 S2        1176.2585 -1338.5330  -869.6675 S2            1 RES     
   28682 C1        1176.9743 -1336.9959  -870.2911 C1            1 RES     
   28683 C1        1178.3087 -1337.1304  -870.6258 C1            1 RES     
   28684 C1        1178.5207 -1340.1843  -869.0388 C1            1 RES     
   28685 C1        1179.7310 -1340.2998  -869.6588 C1            1 RES     
   28686 C1        1180.2980 -1341.5782  -869.5081 C1            1 RES     
   28687 C1        1179.4856 -1342.4157  -868.7067 C1            1 RES     
   28688 S2        1178.1027 -1341.5606  -868.2158 S2            1 RES     
   28689 H3        1178.7909 -1336.4700  -871.3277 H3            1 RES     
   28690 H3        1181.2466 -1341.8754  -869.9374 H3            1 RES     
   28691 N4        1180.5969 -1344.5773  -869.1056 N4            1 RES     
   28692 C1        1180.8329 -1345.9017  -868.8675 C1            1 RES     
   28693 C1        1180.2133 -1346.5606  -867.7987 C1            1 RES     
   28694 C1        1179.3547 -1345.8334  -866.9838 C1            1 RES     
   28695 N4        1178.7162 -1346.3594  -865.9099 N4            1 RES     
   28696 S2        1177.8679 -1345.0634  -865.3367 S2            1 RES     
   28697 N4        1178.2533 -1343.8483  -866.3875 N4            1 RES     
   28698 C1        1179.1033 -1344.4606  -867.2535 C1            1 RES     
   28699 C1        1179.7424 -1343.8313  -868.3435 C1            1 RES     
   28700 H5        1181.5019 -1346.4524  -869.5162 H5            1 RES     
   28701 C0        1181.2984 -1338.3433  -869.4972 C0            1 RES     
   28702 C0        1181.6549 -1336.9223  -869.9451 C0            1 RES     
   28703 C0        1182.6694 -1336.1729  -869.0757 C0            1 RES     
   28704 C0        1182.2424 -1335.9127  -867.6223 C0            1 RES     
   28705 C0        1180.8060 -1335.3653  -867.4937 C0            1 RES     
   28706 C0        1180.5107 -1334.8450  -866.0817 C0            1 RES     
   28707 C0        1181.0985 -1333.4388  -865.8849 C0            1 RES     
   28708 C0        1180.8718 -1332.9266  -864.4620 C0            1 RES     
   28709 C0        1181.2651 -1331.4498  -864.3578 C0            1 RES     
   28710 C0        1181.3762 -1330.8692  -862.9339 C0            1 RES     
   28711 C0        1180.1369 -1330.9369  -862.0191 C0            1 RES     
   28712 C0        1179.9418 -1332.3097  -861.3373 C0            1 RES     
   28713 C0        1178.7515 -1332.3945  -860.3611 C0            1 RES     
   28714 C0        1178.9575 -1331.8314  -858.9343 C0            1 RES     
   28715 C0        1179.1553 -1330.3177  -858.7661 C0            1 RES     
   28716 C0        1178.0116 -1329.5000  -859.3631 C0            1 RES     
   28717 H6        1180.9613 -1338.2969  -868.4400 H6            1 RES     
   28718 H6        1182.2084 -1338.9813  -869.5289 H6            1 RES     
   28719 H6        1182.1020 -1336.9841  -870.9359 H6            1 RES     
   28720 H6        1180.7443 -1336.2982  -870.0059 H6            1 RES     
   28721 H6        1183.6497 -1336.6969  -869.0795 H6            1 RES     
   28722 H6        1182.8164 -1335.1825  -869.5621 H6            1 RES     
   28723 H6        1182.3095 -1336.8489  -867.0267 H6            1 RES     
   28724 H6        1182.9851 -1335.2001  -867.2080 H6            1 RES     
   28725 H6        1180.6035 -1334.5543  -868.2271 H6            1 RES     
   28726 H6        1180.1108 -1336.2039  -867.7125 H6            1 RES     
   28727 H6        1180.8830 -1335.5695  -865.3238 H6            1 RES     
   28728 H6        1179.4089 -1334.7546  -865.9609 H6            1 RES     
   28729 H6        1182.1891 -1333.4239  -866.0890 H6            1 RES     
   28730 H6        1180.5960 -1332.7584  -866.6090 H6            1 RES     
   28731 H6        1179.7928 -1333.0185  -864.2235 H6            1 RES     
   28732 H6        1181.4825 -1333.5456  -863.7690 H6            1 RES     
   28733 H6        1182.2674 -1331.3095  -864.8199 H6            1 RES     
   28734 H6        1180.5342 -1330.8544  -864.9498 H6            1 RES     
   28735 H6        1182.2437 -1331.3145  -862.4007 H6            1 RES     
   28736 H6        1181.6089 -1329.7919  -863.0895 H6            1 RES     
   28737 H6        1179.2278 -1330.6153  -862.5717 H6            1 RES     
   28738 H6        1180.3273 -1330.1943  -861.2350 H6            1 RES     
   28739 H6        1179.7289 -1333.0552  -862.1160 H6            1 RES     
   28740 H6        1180.8682 -1332.6329  -860.8148 H6            1 RES     
   28741 H6        1178.5726 -1333.4813  -860.1989 H6            1 RES     
   28742 H6        1177.8330 -1331.9910  -860.8371 H6            1 RES     
   28743 H6        1178.0522 -1332.1082  -858.3503 H6            1 RES     
   28744 H6        1179.8230 -1332.3493  -858.4659 H6            1 RES     
   28745 H6        1179.2072 -1330.1015  -857.6771 H6            1 RES     
   28746 H6        1180.1256 -1329.9947  -859.1810 H6            1 RES     
   28747 H6        1177.0465 -1329.7937  -858.8986 H6            1 RES     
   28748 H6        1178.1881 -1328.4214  -859.1685 H6            1 RES     
   28749 H6        1177.9486 -1329.6478  -860.4604 H6            1 RES     
   28750 C0        1180.5271 -1339.2755  -871.8443 C0            1 RES     
   28751 C0        1180.2736 -1338.1039  -872.8245 C0            1 RES     
   28752 C0        1180.7887 -1338.2565  -874.2721 C0            1 RES     
   28753 C0        1182.3030 -1338.0476  -874.5218 C0            1 RES     
   28754 C0        1182.8349 -1336.7432  -873.8922 C0            1 RES     
   28755 C0        1184.1963 -1336.2662  -874.4185 C0            1 RES     
   28756 C0        1184.0569 -1335.5351  -875.7639 C0            1 RES     
   28757 C0        1185.4028 -1334.9741  -876.2462 C0            1 RES     
   28758 C0        1185.2033 -1334.0931  -877.4865 C0            1 RES     
   28759 C0        1186.4752 -1333.6739  -878.2549 C0            1 RES     
   28760 C0        1187.5257 -1332.7982  -877.5392 C0            1 RES     
   28761 C0        1188.4590 -1333.5763  -876.5892 C0            1 RES     
   28762 C0        1189.5790 -1332.7361  -875.9393 C0            1 RES     
   28763 C0        1190.8478 -1332.4587  -876.7838 C0            1 RES     
   28764 C0        1190.7269 -1331.5512  -878.0177 C0            1 RES     
   28765 C0        1190.1645 -1330.1703  -877.6865 C0            1 RES     
   28766 H6        1181.5880 -1339.6050  -871.8805 H6            1 RES     
   28767 H6        1179.9131 -1340.1161  -872.2388 H6            1 RES     
   28768 H6        1179.1704 -1338.0253  -872.9139 H6            1 RES     
   28769 H6        1180.6373 -1337.1395  -872.4455 H6            1 RES     
   28770 H6        1180.4549 -1339.2234  -874.7059 H6            1 RES     
   28771 H6        1180.2869 -1337.4486  -874.8506 H6            1 RES     
   28772 H6        1182.9019 -1338.9025  -874.1398 H6            1 RES     
   28773 H6        1182.4275 -1338.0113  -875.6248 H6            1 RES     
   28774 H6        1182.1083 -1335.9084  -874.0045 H6            1 RES     
   28775 H6        1182.9631 -1336.9536  -872.8222 H6            1 RES     
   28776 H6        1184.9187 -1337.1104  -874.4653 H6            1 RES     
   28777 H6        1184.5866 -1335.5181  -873.6947 H6            1 RES     
   28778 H6        1183.6397 -1336.2133  -876.5374 H6            1 RES     
   28779 H6        1183.3520 -1334.6848  -875.6200 H6            1 RES     
   28780 H6        1185.8240 -1334.3499  -875.4346 H6            1 RES     
   28781 H6        1186.0810 -1335.8237  -876.4754 H6            1 RES     
   28782 H6        1184.5879 -1334.6625  -878.2176 H6            1 RES     
   28783 H6        1184.6271 -1333.1869  -877.1939 H6            1 RES     
   28784 H6        1186.9761 -1334.5665  -878.6879 H6            1 RES     
   28785 H6        1186.0953 -1333.0687  -879.1086 H6            1 RES     
   28786 H6        1187.0350 -1331.9449  -877.0227 H6            1 RES     
   28787 H6        1188.1392 -1332.3827  -878.3485 H6            1 RES     
   28788 H6        1187.8528 -1333.9524  -875.7531 H6            1 RES     
   28789 H6        1188.9105 -1334.4545  -877.0994 H6            1 RES     
   28790 H6        1189.9529 -1333.3452  -875.0859 H6            1 RES     
   28791 H6        1189.1615 -1331.8042  -875.5029 H6            1 RES     
   28792 H6        1191.5853 -1331.9800  -876.1020 H6            1 RES     
   28793 H6        1191.2819 -1333.4299  -877.1075 H6            1 RES     
   28794 H6        1191.7463 -1331.4181  -878.4413 H6            1 RES     
   28795 H6        1190.1336 -1332.0351  -878.8128 H6            1 RES     
   28796 H6        1190.8010 -1329.6684  -876.9272 H6            1 RES     
   28797 H6        1190.1490 -1329.5478  -878.6056 H6            1 RES     
   28798 H6        1189.1272 -1330.2470  -877.3016 H6            1 RES     
   28799 C0        1182.8547 -1351.1205  -867.2281 C0            1 RES     
   28800 C1        1181.7579 -1350.0358  -867.1983 C1            1 RES     
   28801 C1        1180.3953 -1350.5513  -866.9530 C1            1 RES     
   28802 S2        1179.2959 -1349.4881  -867.9010 S2            1 RES     
   28803 C1        1180.5063 -1348.2083  -867.5000 C1            1 RES     
   28804 C1        1181.7830 -1348.7158  -867.3473 C1            1 RES     
   28805 C1        1180.6113 -1351.9575  -867.2598 C1            1 RES     
   28806 C1        1181.9219 -1352.3189  -867.3804 C1            1 RES     
   28807 C1        1182.0866 -1353.6993  -867.5942 C1            1 RES     
   28808 C1        1180.8446 -1354.3783  -867.5849 C1            1 RES     
   28809 S2        1179.5920 -1353.2628  -867.3185 S2            1 RES     
   28810 H3        1182.6601 -1348.1019  -867.4704 H3            1 RES     
   28811 H3        1183.0465 -1354.1818  -867.7301 H3            1 RES     
   28812 N4        1181.5664 -1356.5757  -868.4318 N4            1 RES     
   28813 C1        1181.3969 -1357.9017  -868.7138 C1            1 RES     
   28814 C1        1180.2270 -1358.5721  -868.3365 C1            1 RES     
   28815 C1        1179.2435 -1357.8563  -867.6653 C1            1 RES     
   28816 N4        1178.0809 -1358.4039  -867.2341 N4            1 RES     
   28817 S2        1177.3326 -1357.1184  -866.5164 S2            1 RES     
   28818 N4        1178.4015 -1355.8765  -866.7268 N4            1 RES     
   28819 C1        1179.4244 -1356.4727  -867.3945 C1            1 RES     
   28820 C1        1180.6154 -1355.8292  -867.7946 C1            1 RES     
   28821 H5        1182.1728 -1358.4413  -869.2413 H5            1 RES     
   28822 C0        1183.5678 -1351.2106  -865.8398 C0            1 RES     
   28823 C0        1184.3640 -1349.9539  -865.4741 C0            1 RES     
   28824 C0        1184.9631 -1349.9184  -864.0647 C0            1 RES     
   28825 C0        1183.9531 -1349.9605  -862.9068 C0            1 RES     
   28826 C0        1182.7680 -1348.9905  -863.0910 C0            1 RES     
   28827 C0        1181.9413 -1348.8389  -861.8083 C0            1 RES     
   28828 C0        1182.6243 -1347.8694  -860.8310 C0            1 RES     
   28829 C0        1181.8496 -1347.7532  -859.5177 C0            1 RES     
   28830 C0        1182.4241 -1346.6231  -858.6578 C0            1 RES     
   28831 C0        1181.9515 -1346.5702  -857.1912 C0            1 RES     
   28832 C0        1180.4396 -1346.4468  -856.9154 C0            1 RES     
   28833 C0        1179.6792 -1347.7888  -857.0082 C0            1 RES     
   28834 C0        1178.1766 -1347.7166  -856.6710 C0            1 RES     
   28835 C0        1177.7805 -1347.7145  -855.1748 C0            1 RES     
   28836 C0        1178.1641 -1346.4993  -854.3176 C0            1 RES     
   28837 C0        1177.6292 -1345.1838  -854.8801 C0            1 RES     
   28838 H6        1182.7827 -1351.3579  -865.0683 H6            1 RES     
   28839 H6        1184.2382 -1352.0970  -865.8062 H6            1 RES     
   28840 H6        1185.2086 -1349.8800  -866.1572 H6            1 RES     
   28841 H6        1183.7346 -1349.0524  -865.5904 H6            1 RES     
   28842 H6        1185.7025 -1350.7379  -863.9336 H6            1 RES     
   28843 H6        1185.5143 -1348.9540  -863.9909 H6            1 RES     
   28844 H6        1183.5436 -1350.9872  -862.7888 H6            1 RES     
   28845 H6        1184.5299 -1349.7243  -861.9889 H6            1 RES     
   28846 H6        1183.1030 -1347.9844  -863.4257 H6            1 RES     
   28847 H6        1182.1140 -1349.4130  -863.8836 H6            1 RES     
   28848 H6        1181.7568 -1349.8378  -861.3544 H6            1 RES     
   28849 H6        1180.9574 -1348.3924  -862.0719 H6            1 RES     
   28850 H6        1183.6589 -1348.1944  -860.5955 H6            1 RES     
   28851 H6        1182.6726 -1346.8719  -861.3232 H6            1 RES     
   28852 H6        1180.7936 -1347.5107  -859.7533 H6            1 RES     
   28853 H6        1181.9208 -1348.7269  -858.9854 H6            1 RES     
   28854 H6        1183.5308 -1346.7292  -858.6146 H6            1 RES     
   28855 H6        1182.1971 -1345.6562  -859.1604 H6            1 RES     
   28856 H6        1182.3529 -1347.4372  -856.6234 H6            1 RES     
   28857 H6        1182.4349 -1345.6578  -856.7754 H6            1 RES     
   28858 H6        1179.9877 -1345.6682  -857.5673 H6            1 RES     
   28859 H6        1180.3723 -1346.0913  -855.8802 H6            1 RES     
   28860 H6        1179.7241 -1348.1402  -858.0484 H6            1 RES     
   28861 H6        1180.1600 -1348.5662  -856.3756 H6            1 RES     
   28862 H6        1177.7343 -1348.6589  -857.0658 H6            1 RES     
   28863 H6        1177.6961 -1346.8847  -857.2279 H6            1 RES     
   28864 H6        1176.6720 -1347.8004  -855.1401 H6            1 RES     
   28865 H6        1178.1970 -1348.6258  -854.6923 H6            1 RES     
   28866 H6        1177.7300 -1346.6479  -853.3052 H6            1 RES     
   28867 H6        1179.2564 -1346.4461  -854.1690 H6            1 RES     
   28868 H6        1176.5234 -1345.2276  -854.9733 H6            1 RES     
   28869 H6        1177.8972 -1344.3529  -854.1944 H6            1 RES     
   28870 H6        1178.0711 -1344.9683  -855.8742 H6            1 RES     
   28871 C0        1183.8479 -1351.0614  -868.4614 C0            1 RES     
   28872 C0        1184.3275 -1349.6455  -868.8650 C0            1 RES     
   28873 C0        1185.4311 -1349.5421  -869.9401 C0            1 RES     
   28874 C0        1186.8880 -1349.8369  -869.5049 C0            1 RES     
   28875 C0        1187.2965 -1349.0645  -868.2332 C0            1 RES     
   28876 C0        1188.8069 -1348.9852  -867.9684 C0            1 RES     
   28877 C0        1189.4731 -1347.8925  -868.8206 C0            1 RES     
   28878 C0        1190.9656 -1347.7464  -868.4892 C0            1 RES     
   28879 C0        1191.5592 -1346.5303  -869.2125 C0            1 RES     
   28880 C0        1193.0976 -1346.3982  -869.2052 C0            1 RES     
   28881 C0        1193.8256 -1346.2190  -867.8560 C0            1 RES     
   28882 C0        1194.0193 -1347.5266  -867.0613 C0            1 RES     
   28883 C0        1194.8314 -1347.3848  -865.7562 C0            1 RES     
   28884 C0        1196.3758 -1347.3543  -865.8736 C0            1 RES     
   28885 C0        1197.0388 -1346.1454  -866.5516 C0            1 RES     
   28886 C0        1196.6675 -1344.8180  -865.8935 C0            1 RES     
   28887 H6        1184.7098 -1351.7291  -868.2447 H6            1 RES     
   28888 H6        1183.3471 -1351.4635  -869.3705 H6            1 RES     
   28889 H6        1183.4407 -1349.1470  -869.3081 H6            1 RES     
   28890 H6        1184.6455 -1349.0381  -868.0072 H6            1 RES     
   28891 H6        1185.1644 -1350.1465  -870.8334 H6            1 RES     
   28892 H6        1185.4351 -1348.4751  -870.2572 H6            1 RES     
   28893 H6        1187.0519 -1350.9231  -869.3350 H6            1 RES     
   28894 H6        1187.5291 -1349.5257  -870.3567 H6            1 RES     
   28895 H6        1186.8904 -1348.0289  -868.2352 H6            1 RES     
   28896 H6        1186.8538 -1349.6122  -867.3908 H6            1 RES     
   28897 H6        1189.2837 -1349.9808  -868.1037 H6            1 RES     
   28898 H6        1188.9408 -1348.6801  -866.9078 H6            1 RES     
   28899 H6        1189.3536 -1348.1115  -869.9024 H6            1 RES     
   28900 H6        1188.9661 -1346.9266  -868.5959 H6            1 RES     
   28901 H6        1191.0599 -1347.5878  -867.3975 H6            1 RES     
   28902 H6        1191.4907 -1348.6769  -868.7938 H6            1 RES     
   28903 H6        1191.2708 -1346.5933  -870.2850 H6            1 RES     
   28904 H6        1191.1022 -1345.6057  -868.7939 H6            1 RES     
   28905 H6        1193.5598 -1347.2419  -869.7616 H6            1 RES     
   28906 H6        1193.2981 -1345.4737  -869.7921 H6            1 RES     
   28907 H6        1193.3245 -1345.4382  -867.2435 H6            1 RES     
   28908 H6        1194.8188 -1345.8377  -868.1245 H6            1 RES     
   28909 H6        1193.0272 -1347.8836  -866.7511 H6            1 RES     
   28910 H6        1194.4789 -1348.3169  -867.6934 H6            1 RES     
   28911 H6        1194.6250 -1348.3104  -865.1735 H6            1 RES     
   28912 H6        1194.4465 -1346.5377  -865.1498 H6            1 RES     
   28913 H6        1196.7746 -1347.4015  -864.8360 H6            1 RES     
   28914 H6        1196.7132 -1348.2753  -866.3974 H6            1 RES     
   28915 H6        1198.1403 -1346.2753  -866.4733 H6            1 RES     
   28916 H6        1196.8166 -1346.1221  -867.6325 H6            1 RES     
   28917 H6        1196.9474 -1344.8306  -864.8187 H6            1 RES     
   28918 H6        1197.2149 -1343.9919  -866.3941 H6            1 RES     
   28919 H6        1195.5802 -1344.6204  -865.9864 H6            1 RES     
   28920 C0        1181.3289 -1363.7317  -868.8461 C0            1 RES     
   28921 C1        1180.5864 -1362.3821  -868.7588 C1            1 RES     
   28922 C1        1179.2017 -1362.4122  -869.2731 C1            1 RES     
   28923 S2        1178.9203 -1360.7927  -870.0052 S2            1 RES     
   28924 C1        1180.0144 -1360.2222  -868.6855 C1            1 RES     
   28925 C1        1180.9361 -1361.1815  -868.3098 C1            1 RES     
   28926 C1        1179.2597 -1363.6426  -870.0481 C1            1 RES     
   28927 C1        1180.3695 -1364.4047  -869.8238 C1            1 RES     
   28928 C1        1180.3441 -1365.6211  -870.5297 C1            1 RES     
   28929 C1        1179.1437 -1365.7702  -871.2649 C1            1 RES     
   28930 S2        1178.1607 -1364.4061  -871.0256 S2            1 RES     
   28931 H3        1181.8656 -1360.9233  -867.8296 H3            1 RES     
   28932 H3        1181.1372 -1366.3577  -870.4977 H3            1 RES     
   28933 N4        1179.7391 -1367.7251  -872.6399 N4            1 RES     
   28934 C1        1179.4706 -1368.7513  -873.5009 C1            1 RES     
   28935 C1        1178.1577 -1369.0274  -873.9017 C1            1 RES     
   28936 C1        1177.1339 -1368.2338  -873.3998 C1            1 RES     
   28937 N4        1175.8254 -1368.4200  -873.7009 N4            1 RES     
   28938 S2        1175.0916 -1367.2227  -872.8316 S2            1 RES     
   28939 N4        1176.3494 -1366.4541  -872.0857 N4            1 RES     
   28940 C1        1177.4287 -1367.1575  -872.5193 C1            1 RES     
   28941 C1        1178.7652 -1366.9062  -872.1412 C1            1 RES     
   28942 H5        1180.2823 -1369.3559  -873.8845 H5            1 RES     
   28943 C0        1181.2584 -1364.4804  -867.4754 C0            1 RES     
   28944 C0        1182.0100 -1363.7688  -866.3460 C0            1 RES     
   28945 C0        1181.8562 -1364.3710  -864.9459 C0            1 RES     
   28946 C0        1180.4294 -1364.3804  -864.3743 C0            1 RES     
   28947 C0        1179.6913 -1363.0369  -864.5454 C0            1 RES     
   28948 C0        1178.3996 -1362.9788  -863.7210 C0            1 RES     
   28949 C0        1178.7060 -1362.6596  -862.2493 C0            1 RES     
   28950 C0        1177.4372 -1362.6607  -861.3957 C0            1 RES     
   28951 C0        1177.7381 -1362.1256  -859.9923 C0            1 RES     
   28952 C0        1176.6425 -1362.3380  -858.9286 C0            1 RES     
   28953 C0        1175.2397 -1361.7583  -859.1995 C0            1 RES     
   28954 C0        1174.3716 -1362.6387  -860.1263 C0            1 RES     
   28955 C0        1172.9375 -1362.1256  -860.3649 C0            1 RES     
   28956 C0        1171.8834 -1362.4196  -859.2705 C0            1 RES     
   28957 C0        1172.0386 -1361.7387  -857.9026 C0            1 RES     
   28958 C0        1172.1055 -1360.2160  -858.0021 C0            1 RES     
   28959 H6        1180.1884 -1364.5510  -867.1863 H6            1 RES     
   28960 H6        1181.6439 -1365.5179  -867.5812 H6            1 RES     
   28961 H6        1183.0743 -1363.8107  -866.5715 H6            1 RES     
   28962 H6        1181.7020 -1362.7085  -866.2873 H6            1 RES     
   28963 H6        1182.2673 -1365.4034  -864.9174 H6            1 RES     
   28964 H6        1182.4807 -1363.7423  -864.2723 H6            1 RES     
   28965 H6        1179.8225 -1365.1725  -864.8643 H6            1 RES     
   28966 H6        1180.5305 -1364.6526  -863.3035 H6            1 RES     
   28967 H6        1180.3341 -1362.1720  -864.2708 H6            1 RES     
   28968 H6        1179.4278 -1362.9379  -865.6203 H6            1 RES     
   28969 H6        1177.8301 -1363.9272  -863.8389 H6            1 RES     
   28970 H6        1177.7698 -1362.1476  -864.1076 H6            1 RES     
   28971 H6        1179.4162 -1363.3936  -861.8155 H6            1 RES     
   28972 H6        1179.1768 -1361.6513  -862.2134 H6            1 RES     
   28973 H6        1176.6926 -1361.9916  -861.8726 H6            1 RES     
   28974 H6        1177.0542 -1363.7034  -861.3447 H6            1 RES     
   28975 H6        1178.6446 -1362.6360  -859.5979 H6            1 RES     
   28976 H6        1177.9721 -1361.0407  -860.0785 H6            1 RES     
   28977 H6        1176.5460 -1363.4174  -858.6822 H6            1 RES     
   28978 H6        1177.0353 -1361.8311  -858.0188 H6            1 RES     
   28979 H6        1175.3159 -1360.7137  -859.5716 H6            1 RES     
   28980 H6        1174.7564 -1361.7246  -858.2157 H6            1 RES     
   28981 H6        1174.8390 -1362.6592  -861.1207 H6            1 RES     
   28982 H6        1174.3297 -1363.6870  -859.7592 H6            1 RES     
   28983 H6        1172.5640 -1362.6802  -861.2551 H6            1 RES     
   28984 H6        1172.9541 -1361.0515  -860.6461 H6            1 RES     
   28985 H6        1170.9007 -1362.1011  -859.6829 H6            1 RES     
   28986 H6        1171.8320 -1363.5185  -859.1081 H6            1 RES     
   28987 H6        1171.1539 -1362.0096  -857.2867 H6            1 RES     
   28988 H6        1172.9134 -1362.1343  -857.3583 H6            1 RES     
   28989 H6        1171.1944 -1359.8236  -858.5014 H6            1 RES     
   28990 H6        1172.1690 -1359.7819  -856.9823 H6            1 RES     
   28991 H6        1173.0012 -1359.8943  -858.5714 H6            1 RES     
   28992 C0        1182.7807 -1363.6790  -869.4789 C0            1 RES     
   28993 C0        1183.6600 -1362.4848  -869.0337 C0            1 RES     
   28994 C0        1185.1393 -1362.4799  -869.4765 C0            1 RES     
   28995 C0        1186.1216 -1363.4002  -868.7104 C0            1 RES     
   28996 C0        1186.0139 -1363.2415  -867.1795 C0            1 RES     
   28997 C0        1187.1963 -1363.8009  -866.3753 C0            1 RES     
   28998 C0        1188.3870 -1362.8281  -866.3711 C0            1 RES     
   28999 C0        1189.5353 -1363.3415  -865.4898 C0            1 RES     
   29000 C0        1190.6262 -1362.2712  -865.3529 C0            1 RES     
   29001 C0        1191.9660 -1362.7182  -864.7290 C0            1 RES     
   29002 C0        1191.9794 -1363.2229  -863.2704 C0            1 RES     
   29003 C0        1191.5108 -1364.6825  -863.1000 C0            1 RES     
   29004 C0        1191.6100 -1365.2379  -861.6632 C0            1 RES     
   29005 C0        1192.9948 -1365.7403  -861.1837 C0            1 RES     
   29006 C0        1194.1220 -1364.7151  -860.9870 C0            1 RES     
   29007 C0        1193.7479 -1363.6009  -860.0116 C0            1 RES     
   29008 H6        1183.2852 -1364.6471  -869.2700 H6            1 RES     
   29009 H6        1182.7081 -1363.5837  -870.5855 H6            1 RES     
   29010 H6        1183.2093 -1361.5903  -869.5114 H6            1 RES     
   29011 H6        1183.6405 -1362.3170  -867.9487 H6            1 RES     
   29012 H6        1185.2203 -1362.6533  -870.5709 H6            1 RES     
   29013 H6        1185.5020 -1361.4456  -869.2822 H6            1 RES     
   29014 H6        1185.9694 -1364.4694  -868.9735 H6            1 RES     
   29015 H6        1187.1385 -1363.1086  -869.0485 H6            1 RES     
   29016 H6        1185.8686 -1362.1780  -866.8874 H6            1 RES     
   29017 H6        1185.1253 -1363.8116  -866.8776 H6            1 RES     
   29018 H6        1187.4755 -1364.8144  -866.7380 H6            1 RES     
   29019 H6        1186.8633 -1363.8925  -865.3186 H6            1 RES     
   29020 H6        1188.7592 -1362.6594  -867.4034 H6            1 RES     
   29021 H6        1188.0334 -1361.8560  -865.9581 H6            1 RES     
   29022 H6        1189.1250 -1363.5572  -864.4844 H6            1 RES     
   29023 H6        1189.9496 -1364.2653  -865.9473 H6            1 RES     
   29024 H6        1190.8797 -1361.9058  -866.3725 H6            1 RES     
   29025 H6        1190.2147 -1361.4110  -864.7788 H6            1 RES     
   29026 H6        1192.4637 -1363.4684  -865.3808 H6            1 RES     
   29027 H6        1192.5983 -1361.8021  -864.7470 H6            1 RES     
   29028 H6        1191.4094 -1362.5308  -862.6134 H6            1 RES     
   29029 H6        1193.0326 -1363.1697  -862.9675 H6            1 RES     
   29030 H6        1190.4432 -1364.7270  -863.3577 H6            1 RES     
   29031 H6        1192.0528 -1365.3622  -863.7926 H6            1 RES     
   29032 H6        1190.9744 -1366.1517  -861.6513 H6            1 RES     
   29033 H6        1191.1553 -1364.5279  -860.9404 H6            1 RES     
   29034 H6        1192.8311 -1366.2330  -860.1997 H6            1 RES     
   29035 H6        1193.3550 -1366.5227  -861.8870 H6            1 RES     
   29036 H6        1195.0028 -1365.2550  -860.5756 H6            1 RES     
   29037 H6        1194.4531 -1364.2951  -861.9526 H6            1 RES     
   29038 H6        1193.4713 -1364.0306  -859.0254 H6            1 RES     
   29039 H6        1194.6168 -1362.9237  -859.8736 H6            1 RES     
   29040 H6        1192.8994 -1363.0020  -860.4009 H6            1 RES     
   29041 C0        1178.3408 -1373.8367  -876.1227 C0            1 RES     
   29042 C1        1177.9258 -1372.3993  -875.7456 C1            1 RES     
   29043 C1        1176.9799 -1371.7689  -876.6894 C1            1 RES     
   29044 S2        1177.4041 -1370.0203  -876.7069 S2            1 RES     
   29045 C1        1177.8213 -1370.3045  -874.9721 C1            1 RES     
   29046 C1        1178.2444 -1371.5988  -874.7342 C1            1 RES     
   29047 C1        1177.1606 -1372.6487  -877.8346 C1            1 RES     
   29048 C1        1177.8555 -1373.7930  -877.5691 C1            1 RES     
   29049 C1        1177.9345 -1374.6502  -878.6815 C1            1 RES     
   29050 C1        1177.2289 -1374.1272  -879.7916 C1            1 RES     
   29051 S2        1176.5381 -1372.6340  -879.3703 S2            1 RES     
   29052 H3        1178.8612 -1371.8514  -873.8874 H3            1 RES     
   29053 H3        1178.4551 -1375.5997  -878.6798 H3            1 RES     
   29054 N4        1178.0157 -1375.6663  -881.5463 N4            1 RES     
   29055 C1        1177.9976 -1376.2212  -882.7946 C1            1 RES     
   29056 C1        1177.0110 -1375.8677  -883.7231 C1            1 RES     
   29057 C1        1176.0487 -1374.9408  -883.3429 C1            1 RES     
   29058 N4        1175.0357 -1374.5389  -884.1490 N4            1 RES     
   29059 S2        1174.2246 -1373.4695  -883.1866 S2            1 RES     
   29060 N4        1175.0949 -1373.4695  -881.7824 N4            1 RES     
   29061 C1        1176.0897 -1374.3571  -882.0474 C1            1 RES     
   29062 C1        1177.1026 -1374.7344  -881.1396 C1            1 RES     
   29063 H5        1178.7585 -1376.9385  -883.0737 H5            1 RES     
   29064 C0        1177.4794 -1374.8756  -875.3337 C0            1 RES     
   29065 C0        1177.7217 -1374.8541  -873.8212 C0            1 RES     
   29066 C0        1176.8033 -1375.7420  -872.9757 C0            1 RES     
   29067 C0        1175.3063 -1375.3977  -873.0274 C0            1 RES     
   29068 C0        1175.0174 -1373.8913  -872.8651 C0            1 RES     
   29069 C0        1173.5282 -1373.6111  -872.6295 C0            1 RES     
   29070 C0        1173.1492 -1373.8743  -871.1637 C0            1 RES     
   29071 C0        1171.6542 -1373.6634  -870.9209 C0            1 RES     
   29072 C0        1171.3451 -1373.7138  -869.4214 C0            1 RES     
   29073 C0        1169.8568 -1373.8146  -869.0317 C0            1 RES     
   29074 C0        1168.8978 -1372.7108  -869.5205 C0            1 RES     
   29075 C0        1168.4260 -1372.8985  -870.9798 C0            1 RES     
   29076 C0        1167.4117 -1371.8516  -871.4817 C0            1 RES     
   29077 C0        1165.9284 -1372.0486  -871.0862 C0            1 RES     
   29078 C0        1165.5399 -1371.9067  -869.6071 C0            1 RES     
   29079 C0        1165.9411 -1370.5569  -869.0153 C0            1 RES     
   29080 H6        1176.4110 -1374.6325  -875.5151 H6            1 RES     
   29081 H6        1177.6582 -1375.9016  -875.7232 H6            1 RES     
   29082 H6        1178.7329 -1375.2133  -873.6373 H6            1 RES     
   29083 H6        1177.6362 -1373.8225  -873.4326 H6            1 RES     
   29084 H6        1176.9408 -1376.8123  -873.2425 H6            1 RES     
   29085 H6        1177.1386 -1375.6130  -871.9221 H6            1 RES     
   29086 H6        1174.8665 -1375.7315  -873.9923 H6            1 RES     
   29087 H6        1174.8279 -1375.9902  -872.2205 H6            1 RES     
   29088 H6        1175.6050 -1373.4429  -872.0342 H6            1 RES     
   29089 H6        1175.3249 -1373.3912  -873.8085 H6            1 RES     
   29090 H6        1172.9122 -1374.2062  -873.3397 H6            1 RES     
   29091 H6        1173.3354 -1372.5332  -872.8247 H6            1 RES     
   29092 H6        1173.4072 -1374.9096  -870.8588 H6            1 RES     
   29093 H6        1173.7315 -1373.1662  -870.5319 H6            1 RES     
   29094 H6        1171.3747 -1372.6603  -871.3018 H6            1 RES     
   29095 H6        1171.0988 -1374.4595  -871.4634 H6            1 RES     
   29096 H6        1171.8336 -1374.6116  -868.9820 H6            1 RES     
   29097 H6        1171.7979 -1372.8157  -868.9444 H6            1 RES     
   29098 H6        1169.4463 -1374.8053  -869.3236 H6            1 RES     
   29099 H6        1169.8570 -1373.7782  -867.9192 H6            1 RES     
   29100 H6        1169.3443 -1371.7064  -869.3548 H6            1 RES     
   29101 H6        1168.0200 -1372.7941  -868.8684 H6            1 RES     
   29102 H6        1169.2977 -1372.7945  -871.6408 H6            1 RES     
   29103 H6        1168.0105 -1373.9172  -871.1386 H6            1 RES     
   29104 H6        1167.4094 -1371.9429  -872.5912 H6            1 RES     
   29105 H6        1167.7694 -1370.8262  -871.2501 H6            1 RES     
   29106 H6        1165.3459 -1371.2871  -871.6502 H6            1 RES     
   29107 H6        1165.5928 -1373.0483  -871.4395 H6            1 RES     
   29108 H6        1164.4350 -1372.0042  -869.5359 H6            1 RES     
   29109 H6        1165.9520 -1372.7356  -869.0062 H6            1 RES     
   29110 H6        1165.4759 -1369.7307  -869.5935 H6            1 RES     
   29111 H6        1165.5925 -1370.4969  -867.9630 H6            1 RES     
   29112 H6        1167.0431 -1370.4322  -869.0223 H6            1 RES     
   29113 C0        1179.8970 -1374.1338  -876.0941 C0            1 RES     
   29114 C0        1180.6697 -1373.5311  -874.8952 C0            1 RES     
   29115 C0        1182.1493 -1373.9365  -874.7197 C0            1 RES     
   29116 C0        1182.4453 -1375.3335  -874.1200 C0            1 RES     
   29117 C0        1181.6520 -1375.6046  -872.8247 C0            1 RES     
   29118 C0        1182.1713 -1376.7672  -871.9664 C0            1 RES     
   29119 C0        1183.3785 -1376.3439  -871.1133 C0            1 RES     
   29120 C0        1183.8407 -1377.4760  -870.1841 C0            1 RES     
   29121 C0        1184.9179 -1376.9693  -869.2159 C0            1 RES     
   29122 C0        1185.6801 -1378.0369  -868.4015 C0            1 RES     
   29123 C0        1184.8959 -1378.9170  -867.4049 C0            1 RES     
   29124 C0        1184.1290 -1380.0852  -868.0578 C0            1 RES     
   29125 C0        1183.4189 -1381.0349  -867.0696 C0            1 RES     
   29126 C0        1184.2779 -1382.1253  -866.3818 C0            1 RES     
   29127 C0        1185.3489 -1381.6893  -865.3701 C0            1 RES     
   29128 C0        1184.7790 -1380.8558  -864.2241 C0            1 RES     
   29129 H6        1180.0408 -1375.2346  -876.1502 H6            1 RES     
   29130 H6        1180.3824 -1373.6973  -876.9957 H6            1 RES     
   29131 H6        1180.6862 -1372.4360  -875.0733 H6            1 RES     
   29132 H6        1180.1669 -1373.6952  -873.9329 H6            1 RES     
   29133 H6        1182.7082 -1373.7970  -875.6698 H6            1 RES     
   29134 H6        1182.5685 -1373.2126  -873.9852 H6            1 RES     
   29135 H6        1182.2326 -1376.1447  -874.8495 H6            1 RES     
   29136 H6        1183.5347 -1375.3476  -873.9042 H6            1 RES     
   29137 H6        1181.5949 -1374.6983  -872.1823 H6            1 RES     
   29138 H6        1180.6357 -1375.8727  -873.1424 H6            1 RES     
   29139 H6        1182.3866 -1377.6574  -872.5971 H6            1 RES     
   29140 H6        1181.3631 -1377.0376  -871.2526 H6            1 RES     
   29141 H6        1184.2236 -1376.0269  -871.7597 H6            1 RES     
   29142 H6        1183.0674 -1375.4779  -870.4858 H6            1 RES     
   29143 H6        1182.9666 -1377.8127  -869.5939 H6            1 RES     
   29144 H6        1184.2344 -1378.3085  -870.8056 H6            1 RES     
   29145 H6        1185.6936 -1376.4389  -869.8112 H6            1 RES     
   29146 H6        1184.4584 -1376.2283  -868.5240 H6            1 RES     
   29147 H6        1186.2719 -1378.6892  -869.0792 H6            1 RES     
   29148 H6        1186.4085 -1377.4533  -867.7947 H6            1 RES     
   29149 H6        1184.2284 -1378.2910  -866.7739 H6            1 RES     
   29150 H6        1185.6635 -1379.3436  -866.7472 H6            1 RES     
   29151 H6        1183.3293 -1379.6588  -868.6796 H6            1 RES     
   29152 H6        1184.7921 -1380.6794  -868.7230 H6            1 RES     
   29153 H6        1182.6910 -1381.6135  -867.6815 H6            1 RES     
   29154 H6        1182.8222 -1380.4546  -866.3344 H6            1 RES     
   29155 H6        1183.5714 -1382.7904  -865.8375 H6            1 RES     
   29156 H6        1184.7704 -1382.7407  -867.1661 H6            1 RES     
   29157 H6        1185.8015 -1382.6087  -864.9387 H6            1 RES     
   29158 H6        1186.1759 -1381.1550  -865.8692 H6            1 RES     
   29159 H6        1183.9870 -1381.4247  -863.6924 H6            1 RES     
   29160 H6        1185.5890 -1380.6155  -863.5039 H6            1 RES     
   29161 H6        1184.3551 -1379.9025  -864.6004 H6            1 RES     
   29162 C0        1177.2935 -1379.5283  -887.5463 C0            1 RES     
   29163 C1        1177.0376 -1378.2183  -886.7724 C1            1 RES     
   29164 C1        1176.8014 -1377.0384  -887.6296 C1            1 RES     
   29165 S2        1177.5135 -1375.6437  -886.7431 S2            1 RES     
   29166 C1        1176.9861 -1376.5577  -885.2766 C1            1 RES     
   29167 C1        1176.9827 -1377.9253  -885.4776 C1            1 RES     
   29168 C1        1177.3324 -1377.5442  -888.8867 C1            1 RES     
   29169 C1        1177.5779 -1378.8867  -888.9016 C1            1 RES     
   29170 C1        1178.0105 -1379.3451  -890.1591 C1            1 RES     
   29171 C1        1178.0387 -1378.2988  -891.1120 C1            1 RES     
   29172 S2        1177.5363 -1376.8518  -890.3784 S2            1 RES     
   29173 H3        1177.0570 -1378.6230  -884.6596 H3            1 RES     
   29174 H3        1178.2708 -1380.3743  -890.3728 H3            1 RES     
   29175 N4        1179.2519 -1379.4288  -892.9336 N4            1 RES     
   29176 C1        1179.7252 -1379.5448  -894.2100 C1            1 RES     
   29177 C1        1179.3930 -1378.5991  -895.1876 C1            1 RES     
   29178 C1        1178.5674 -1377.5410  -894.8286 C1            1 RES     
   29179 N4        1178.1634 -1376.5789  -895.6938 N4            1 RES     
   29180 S2        1177.2168 -1375.6217  -894.7371 S2            1 RES     
   29181 N4        1177.2909 -1376.3528  -893.2575 N4            1 RES     
   29182 C1        1178.0968 -1377.4218  -893.4926 C1            1 RES     
   29183 C1        1178.4568 -1378.3921  -892.5327 C1            1 RES     
   29184 H5        1180.3707 -1380.3739  -894.4693 H5            1 RES     
   29185 C0        1175.9763 -1380.3637  -887.6511 C0            1 RES     
   29186 C0        1175.4649 -1380.8784  -886.3018 C0            1 RES     
   29187 C0        1174.1013 -1381.5763  -886.3162 C0            1 RES     
   29188 C0        1172.9109 -1380.7105  -886.7585 C0            1 RES     
   29189 C0        1172.8790 -1379.3223  -886.0868 C0            1 RES     
   29190 C0        1171.5456 -1378.6005  -886.3158 C0            1 RES     
   29191 C0        1170.4689 -1379.1261  -885.3534 C0            1 RES     
   29192 C0        1169.1134 -1378.4656  -885.6081 C0            1 RES     
   29193 C0        1168.1221 -1378.8387  -884.5016 C0            1 RES     
   29194 C0        1166.6414 -1378.4992  -884.7652 C0            1 RES     
   29195 C0        1166.2685 -1377.0302  -885.0487 C0            1 RES     
   29196 C0        1166.5257 -1376.5942  -886.5086 C0            1 RES     
   29197 C0        1166.1007 -1375.1515  -886.8473 C0            1 RES     
   29198 C0        1164.6028 -1374.9005  -887.1455 C0            1 RES     
   29199 C0        1163.5906 -1375.0687  -886.0028 C0            1 RES     
   29200 C0        1163.9140 -1374.1973  -884.7907 C0            1 RES     
   29201 H6        1175.1953 -1379.7055  -888.0873 H6            1 RES     
   29202 H6        1176.1160 -1381.2205  -888.3459 H6            1 RES     
   29203 H6        1176.1731 -1381.6190  -885.9339 H6            1 RES     
   29204 H6        1175.4067 -1380.0505  -885.5713 H6            1 RES     
   29205 H6        1174.1383 -1382.4932  -886.9435 H6            1 RES     
   29206 H6        1173.9098 -1381.8949  -885.2669 H6            1 RES     
   29207 H6        1172.9305 -1380.5606  -887.8598 H6            1 RES     
   29208 H6        1172.0001 -1381.2967  -886.5181 H6            1 RES     
   29209 H6        1173.0724 -1379.3854  -884.9935 H6            1 RES     
   29210 H6        1173.6908 -1378.7151  -886.5418 H6            1 RES     
   29211 H6        1171.2417 -1378.6921  -887.3821 H6            1 RES     
   29212 H6        1171.6836 -1377.5207  -886.0877 H6            1 RES     
   29213 H6        1170.3426 -1380.2245  -885.4487 H6            1 RES     
   29214 H6        1170.8034 -1378.8994  -884.3160 H6            1 RES     
   29215 H6        1169.2514 -1377.3655  -885.5972 H6            1 RES     
   29216 H6        1168.7422 -1378.8063  -886.5994 H6            1 RES     
   29217 H6        1168.1555 -1379.9394  -884.3428 H6            1 RES     
   29218 H6        1168.4566 -1378.3513  -883.5584 H6            1 RES     
   29219 H6        1166.2365 -1379.1384  -885.5793 H6            1 RES     
   29220 H6        1166.1168 -1378.7946  -883.8290 H6            1 RES     
   29221 H6        1166.7673 -1376.3550  -884.3202 H6            1 RES     
   29222 H6        1165.1888 -1376.9754  -884.8650 H6            1 RES     
   29223 H6        1167.6085 -1376.6260  -886.6931 H6            1 RES     
   29224 H6        1166.0474 -1377.2955  -887.2264 H6            1 RES     
   29225 H6        1166.6114 -1374.9047  -887.8053 H6            1 RES     
   29226 H6        1166.4959 -1374.4447  -886.0876 H6            1 RES     
   29227 H6        1164.5219 -1373.8492  -887.4999 H6            1 RES     
   29228 H6        1164.2897 -1375.5568  -887.9868 H6            1 RES     
   29229 H6        1162.5913 -1374.7724  -886.3887 H6            1 RES     
   29230 H6        1163.4949 -1376.1282  -885.7089 H6            1 RES     
   29231 H6        1163.9529 -1373.1275  -885.0864 H6            1 RES     
   29232 H6        1163.1240 -1374.3268  -884.0216 H6            1 RES     
   29233 H6        1164.8854 -1374.4873  -884.3411 H6            1 RES     
   29234 C0        1178.5548 -1380.3673  -887.0815 C0            1 RES     
   29235 C0        1178.7608 -1380.4700  -885.5502 C0            1 RES     
   29236 C0        1179.8652 -1381.4198  -885.0379 C0            1 RES     
   29237 C0        1179.5601 -1382.9383  -885.0298 C0            1 RES     
   29238 C0        1178.2086 -1383.2695  -884.3631 C0            1 RES     
   29239 C0        1178.0167 -1384.7385  -883.9594 C0            1 RES     
   29240 C0        1178.7252 -1385.0565  -882.6323 C0            1 RES     
   29241 C0        1178.4564 -1386.4987  -882.1777 C0            1 RES     
   29242 C0        1179.0147 -1386.7295  -880.7673 C0            1 RES     
   29243 C0        1179.0704 -1388.1904  -880.2707 C0            1 RES     
   29244 C0        1177.7510 -1388.9748  -880.1077 C0            1 RES     
   29245 C0        1177.1789 -1389.5344  -881.4263 C0            1 RES     
   29246 C0        1175.9134 -1390.4049  -881.2729 C0            1 RES     
   29247 C0        1176.1080 -1391.8841  -880.8555 C0            1 RES     
   29248 C0        1176.6265 -1392.1878  -879.4415 C0            1 RES     
   29249 C0        1175.7528 -1391.5810  -878.3455 C0            1 RES     
   29250 H6        1178.4906 -1381.3754  -887.5450 H6            1 RES     
   29251 H6        1179.4866 -1379.8935  -887.4641 H6            1 RES     
   29252 H6        1179.0733 -1379.4564  -885.2243 H6            1 RES     
   29253 H6        1177.8382 -1380.7147  -885.0074 H6            1 RES     
   29254 H6        1180.8252 -1381.2210  -885.5607 H6            1 RES     
   29255 H6        1180.0139 -1381.1498  -883.9683 H6            1 RES     
   29256 H6        1179.5687 -1383.3624  -886.0572 H6            1 RES     
   29257 H6        1180.3872 -1383.4120  -884.4597 H6            1 RES     
   29258 H6        1178.0290 -1382.6373  -883.4656 H6            1 RES     
   29259 H6        1177.4378 -1383.0417  -885.1113 H6            1 RES     
   29260 H6        1178.3293 -1385.4178  -884.7826 H6            1 RES     
   29261 H6        1176.9306 -1384.8925  -883.7791 H6            1 RES     
   29262 H6        1179.8197 -1384.8948  -882.7235 H6            1 RES     
   29263 H6        1178.3273 -1384.3628  -881.8571 H6            1 RES     
   29264 H6        1177.3601 -1386.6508  -882.1520 H6            1 RES     
   29265 H6        1178.9287 -1387.1947  -882.9036 H6            1 RES     
   29266 H6        1180.0670 -1386.3690  -880.7505 H6            1 RES     
   29267 H6        1178.4346 -1386.1110  -880.0462 H6            1 RES     
   29268 H6        1179.7743 -1388.7831  -880.8939 H6            1 RES     
   29269 H6        1179.5178 -1388.1196  -879.2537 H6            1 RES     
   29270 H6        1176.9994 -1388.3640  -879.5621 H6            1 RES     
   29271 H6        1178.0109 -1389.8255  -879.4654 H6            1 RES     
   29272 H6        1176.8742 -1388.6828  -882.0507 H6            1 RES     
   29273 H6        1177.9491 -1390.1055  -881.9884 H6            1 RES     
   29274 H6        1175.4699 -1390.4700  -882.2919 H6            1 RES     
   29275 H6        1175.1638 -1389.8910  -880.6348 H6            1 RES     
   29276 H6        1175.1132 -1392.3738  -880.9468 H6            1 RES     
   29277 H6        1176.7850 -1392.3765  -881.5875 H6            1 RES     
   29278 H6        1176.6289 -1393.2921  -879.3116 H6            1 RES     
   29279 H6        1177.6774 -1391.8709  -879.3247 H6            1 RES     
   29280 H6        1174.7095 -1391.9508  -878.4373 H6            1 RES     
   29281 H6        1176.1489 -1391.8765  -877.3514 H6            1 RES     
   29282 H6        1175.7551 -1390.4735  -878.4049 H6            1 RES     
   29283 C0        1180.7502 -1380.8096  -899.8100 C0            1 RES     
   29284 C1        1180.4160 -1379.7871  -898.7040 C1            1 RES     
   29285 C1        1180.8532 -1378.4064  -898.9961 C1            1 RES     
   29286 S2        1181.3107 -1377.6956  -897.4076 S2            1 RES     
   29287 C1        1179.9800 -1378.7420  -896.7766 C1            1 RES     
   29288 C1        1179.8070 -1379.8895  -897.5276 C1            1 RES     
   29289 C1        1181.8105 -1378.6769  -900.0584 C1            1 RES     
   29290 C1        1181.7667 -1379.9478  -900.5540 C1            1 RES     
   29291 C1        1182.6491 -1380.1404  -901.6322 C1            1 RES     
   29292 C1        1183.3325 -1378.9461  -901.9641 C1            1 RES     
   29293 S2        1182.8331 -1377.7006  -900.9229 S2            1 RES     
   29294 H3        1179.3437 -1380.7736  -897.1213 H3            1 RES     
   29295 H3        1182.7739 -1381.0815  -902.1533 H3            1 RES     
   29296 N4        1185.0225 -1379.8507  -903.5109 N4            1 RES     
   29297 C1        1186.0155 -1379.7501  -904.4438 C1            1 RES     
   29298 C1        1186.3824 -1378.5058  -904.9705 C1            1 RES     
   29299 C1        1185.7096 -1377.3756  -904.5233 C1            1 RES     
   29300 N4        1185.9646 -1376.1237  -904.9762 N4            1 RES     
   29301 S2        1184.8828 -1375.2143  -904.1215 S2            1 RES     
   29302 N4        1184.0966 -1376.3227  -903.1821 N4            1 RES     
   29303 C1        1184.6911 -1377.4919  -903.5386 C1            1 RES     
   29304 C1        1184.3516 -1378.7628  -903.0269 C1            1 RES     
   29305 H5        1186.5310 -1380.6418  -904.7766 H5            1 RES     
   29306 C0        1179.5095 -1381.0358  -900.7339 C0            1 RES     
   29307 C0        1178.3263 -1381.7009  -900.0236 C0            1 RES     
   29308 C0        1177.0295 -1381.8152  -900.8310 C0            1 RES     
   29309 C0        1176.3898 -1380.4857  -901.2619 C0            1 RES     
   29310 C0        1176.3117 -1379.4458  -900.1254 C0            1 RES     
   29311 C0        1175.4195 -1378.2541  -900.4936 C0            1 RES     
   29312 C0        1173.9350 -1378.6086  -900.3145 C0            1 RES     
   29313 C0        1173.0244 -1377.4554  -900.7380 C0            1 RES     
   29314 C0        1171.5737 -1377.7488  -900.3434 C0            1 RES     
   29315 C0        1170.4977 -1376.8308  -900.9570 C0            1 RES     
   29316 C0        1170.5998 -1375.3138  -900.7009 C0            1 RES     
   29317 C0        1171.6029 -1374.5928  -901.6291 C0            1 RES     
   29318 C0        1171.6817 -1373.0637  -901.4489 C0            1 RES     
   29319 C0        1170.5903 -1372.2074  -902.1352 C0            1 RES     
   29320 C0        1169.1442 -1372.3229  -901.6307 C0            1 RES     
   29321 C0        1169.0114 -1372.0281  -900.1379 C0            1 RES     
   29322 H6        1179.1773 -1380.0409  -901.0991 H6            1 RES     
   29323 H6        1179.7946 -1381.6389  -901.6234 H6            1 RES     
   29324 H6        1178.6128 -1382.7218  -899.7767 H6            1 RES     
   29325 H6        1178.0883 -1381.1635  -899.0871 H6            1 RES     
   29326 H6        1177.1826 -1382.4539  -901.7277 H6            1 RES     
   29327 H6        1176.3017 -1382.3356  -900.1685 H6            1 RES     
   29328 H6        1176.9624 -1380.0363  -902.1022 H6            1 RES     
   29329 H6        1175.3807 -1380.7417  -901.6456 H6            1 RES     
   29330 H6        1175.9423 -1379.8940  -899.1771 H6            1 RES     
   29331 H6        1177.3426 -1379.0720  -899.9466 H6            1 RES     
   29332 H6        1175.6512 -1377.9102  -901.5260 H6            1 RES     
   29333 H6        1175.6389 -1377.4180  -899.7938 H6            1 RES     
   29334 H6        1173.6586 -1379.5046  -900.9080 H6            1 RES     
   29335 H6        1173.7697 -1378.8359  -899.2371 H6            1 RES     
   29336 H6        1173.3516 -1376.5374  -900.2093 H6            1 RES     
   29337 H6        1173.1141 -1377.3290  -901.8392 H6            1 RES     
   29338 H6        1171.3122 -1378.7799  -900.6694 H6            1 RES     
   29339 H6        1171.5042 -1377.7181  -899.2328 H6            1 RES     
   29340 H6        1170.4157 -1377.0078  -902.0511 H6            1 RES     
   29341 H6        1169.5433 -1377.1757  -900.4998 H6            1 RES     
   29342 H6        1170.8101 -1375.1140  -899.6279 H6            1 RES     
   29343 H6        1169.5979 -1374.9253  -900.9195 H6            1 RES     
   29344 H6        1172.6123 -1374.9618  -901.4001 H6            1 RES     
   29345 H6        1171.4000 -1374.8262  -902.6968 H6            1 RES     
   29346 H6        1172.6251 -1372.7501  -901.9500 H6            1 RES     
   29347 H6        1171.7946 -1372.8074  -900.3744 H6            1 RES     
   29348 H6        1170.8950 -1371.1450  -902.0094 H6            1 RES     
   29349 H6        1170.5965 -1372.4251  -903.2257 H6            1 RES     
   29350 H6        1168.5305 -1371.5827  -902.1884 H6            1 RES     
   29351 H6        1168.7155 -1373.3101  -901.8745 H6            1 RES     
   29352 H6        1169.3942 -1371.0104  -899.9120 H6            1 RES     
   29353 H6        1167.9418 -1372.0805  -899.8451 H6            1 RES     
   29354 H6        1169.5719 -1372.7713  -899.5351 H6            1 RES     
   29355 C0        1181.4449 -1382.1480  -899.3230 C0            1 RES     
   29356 C0        1180.8693 -1382.7647  -898.0246 C0            1 RES     
   29357 C0        1181.3853 -1384.1576  -897.6029 C0            1 RES     
   29358 C0        1180.8245 -1385.3897  -898.3554 C0            1 RES     
   29359 C0        1179.2838 -1385.3851  -898.4383 C0            1 RES     
   29360 C0        1178.6406 -1386.7314  -898.8010 C0            1 RES     
   29361 C0        1178.5510 -1387.6616  -897.5800 C0            1 RES     
   29362 C0        1177.8227 -1388.9710  -897.9173 C0            1 RES     
   29363 C0        1177.5816 -1389.7939  -896.6449 C0            1 RES     
   29364 C0        1177.1075 -1391.2508  -896.8370 C0            1 RES     
   29365 C0        1175.7469 -1391.5099  -897.5183 C0            1 RES     
   29366 C0        1175.7784 -1391.4070  -899.0570 C0            1 RES     
   29367 C0        1174.4518 -1391.7590  -899.7634 C0            1 RES     
   29368 C0        1174.1310 -1393.2594  -899.9781 C0            1 RES     
   29369 C0        1173.8399 -1394.1332  -898.7483 C0            1 RES     
   29370 C0        1172.6857 -1393.6009  -897.9014 C0            1 RES     
   29371 H6        1181.4153 -1382.8785  -900.1603 H6            1 RES     
   29372 H6        1182.5182 -1381.9571  -899.0975 H6            1 RES     
   29373 H6        1181.1784 -1382.0795  -897.2083 H6            1 RES     
   29374 H6        1179.7719 -1382.8038  -898.0165 H6            1 RES     
   29375 H6        1182.4962 -1384.1785  -897.6003 H6            1 RES     
   29376 H6        1181.0539 -1384.2883  -896.5483 H6            1 RES     
   29377 H6        1181.2406 -1385.4649  -899.3834 H6            1 RES     
   29378 H6        1181.1681 -1386.2779  -897.7839 H6            1 RES     
   29379 H6        1178.8240 -1385.0254  -897.4915 H6            1 RES     
   29380 H6        1179.0258 -1384.6823  -899.2415 H6            1 RES     
   29381 H6        1179.1696 -1387.2031  -899.6579 H6            1 RES     
   29382 H6        1177.5941 -1386.5240  -899.1139 H6            1 RES     
   29383 H6        1179.5635 -1387.8915  -897.1870 H6            1 RES     
   29384 H6        1177.9746 -1387.1319  -896.7877 H6            1 RES     
   29385 H6        1176.8418 -1388.7127  -898.3610 H6            1 RES     
   29386 H6        1178.4388 -1389.5445  -898.6426 H6            1 RES     
   29387 H6        1178.5450 -1389.8646  -896.0931 H6            1 RES     
   29388 H6        1176.8605 -1389.2482  -895.9960 H6            1 RES     
   29389 H6        1177.8930 -1391.8477  -897.3487 H6            1 RES     
   29390 H6        1177.0183 -1391.6509  -895.8020 H6            1 RES     
   29391 H6        1174.9613 -1390.8566  -897.0805 H6            1 RES     
   29392 H6        1175.4968 -1392.5452  -897.2549 H6            1 RES     
   29393 H6        1175.9818 -1390.3599  -899.3216 H6            1 RES     
   29394 H6        1176.5957 -1392.0271  -899.4847 H6            1 RES     
   29395 H6        1174.5464 -1391.3547  -900.7961 H6            1 RES     
   29396 H6        1173.6047 -1391.2193  -899.2895 H6            1 RES     
   29397 H6        1173.2273 -1393.3019  -900.6256 H6            1 RES     
   29398 H6        1174.9649 -1393.7259  -900.5468 H6            1 RES     
   29399 H6        1173.5649 -1395.1476  -899.1112 H6            1 RES     
   29400 H6        1174.7458 -1394.2713  -898.1329 H6            1 RES     
   29401 H6        1171.7640 -1393.5197  -898.5159 H6            1 RES     
   29402 H6        1172.4922 -1394.2993  -897.0602 H6            1 RES     
   29403 H6        1172.9317 -1392.6062  -897.4771 H6            1 RES     
   29404 C0        1189.3245 -1379.5928  -909.2434 C0            1 RES     
   29405 C1        1188.7086 -1378.8933  -908.0139 C1            1 RES     
   29406 C1        1189.4914 -1377.7474  -907.5069 C1            1 RES     
   29407 S2        1189.2622 -1377.7543  -905.7222 S2            1 RES     
   29408 C1        1187.6171 -1378.3785  -906.1321 C1            1 RES     
   29409 C1        1187.6046 -1379.1077  -907.3064 C1            1 RES     
   29410 C1        1190.7665 -1378.0231  -908.1520 C1            1 RES     
   29411 C1        1190.7185 -1378.9837  -909.1204 C1            1 RES     
   29412 C1        1191.9523 -1379.1585  -909.7728 C1            1 RES     
   29413 C1        1192.9288 -1378.2554  -909.2884 C1            1 RES     
   29414 S2        1192.2457 -1377.2797  -908.0777 S2            1 RES     
   29415 H3        1186.8415 -1379.8391  -907.5164 H3            1 RES     
   29416 H3        1192.1251 -1379.8818  -910.5600 H3            1 RES     
   29417 N4        1194.9396 -1379.2160  -910.3376 N4            1 RES     
   29418 C1        1196.2557 -1379.2150  -910.7043 C1            1 RES     
   29419 C1        1197.0640 -1378.0949  -910.4752 C1            1 RES     
   29420 C1        1196.4939 -1376.9828  -909.8685 C1            1 RES     
   29421 N4        1197.1725 -1375.8368  -909.6160 N4            1 RES     
   29422 S2        1196.0144 -1374.8904  -908.9156 S2            1 RES     
   29423 N4        1194.6761 -1375.8588  -908.8981 N4            1 RES     
   29424 C1        1195.1282 -1377.0035  -909.4750 C1            1 RES     
   29425 C1        1194.3454 -1378.1528  -909.7177 C1            1 RES     
   29426 H5        1196.6827 -1380.0927  -911.1720 H5            1 RES     
   29427 C0        1188.6596 -1379.0676  -910.5572 C0            1 RES     
   29428 C0        1187.1772 -1379.4321  -910.6851 C0            1 RES     
   29429 C0        1186.4302 -1378.8220  -911.8752 C0            1 RES     
   29430 C0        1186.3472 -1377.2874  -911.8980 C0            1 RES     
   29431 C0        1185.9393 -1376.6750  -910.5423 C0            1 RES     
   29432 C0        1185.5832 -1375.1884  -910.6641 C0            1 RES     
   29433 C0        1184.1571 -1375.0123  -911.2089 C0            1 RES     
   29434 C0        1183.8042 -1373.5367  -911.3997 C0            1 RES     
   29435 C0        1182.3159 -1373.3824  -911.7277 C0            1 RES     
   29436 C0        1181.8665 -1371.9981  -912.2365 C0            1 RES     
   29437 C0        1182.1268 -1370.7710  -911.3400 C0            1 RES     
   29438 C0        1183.5700 -1370.2271  -911.4343 C0            1 RES     
   29439 C0        1183.8489 -1368.9584  -910.6041 C0            1 RES     
   29440 C0        1183.4089 -1367.6016  -911.2049 C0            1 RES     
   29441 C0        1181.9068 -1367.3242  -911.3645 C0            1 RES     
   29442 C0        1181.1367 -1367.4549  -910.0519 C0            1 RES     
   29443 H6        1188.7433 -1377.9602  -910.5561 H6            1 RES     
   29444 H6        1189.2116 -1379.4425  -911.4467 H6            1 RES     
   29445 H6        1187.1057 -1380.5112  -910.8118 H6            1 RES     
   29446 H6        1186.6302 -1379.1464  -909.7677 H6            1 RES     
   29447 H6        1186.8657 -1379.1780  -912.8339 H6            1 RES     
   29448 H6        1185.3889 -1379.2110  -911.8147 H6            1 RES     
   29449 H6        1187.3268 -1376.8522  -912.1926 H6            1 RES     
   29450 H6        1185.6165 -1377.0322  -912.6930 H6            1 RES     
   29451 H6        1185.0823 -1377.2152  -910.0836 H6            1 RES     
   29452 H6        1186.8096 -1376.7738  -909.8587 H6            1 RES     
   29453 H6        1186.3422 -1374.6653  -911.2871 H6            1 RES     
   29454 H6        1185.5992 -1374.7361  -909.6482 H6            1 RES     
   29455 H6        1184.0297 -1375.5279  -912.1833 H6            1 RES     
   29456 H6        1183.4562 -1375.4699  -910.4747 H6            1 RES     
   29457 H6        1184.0103 -1373.0010  -910.4510 H6            1 RES     
   29458 H6        1184.4321 -1373.1335  -912.2242 H6            1 RES     
   29459 H6        1182.0471 -1374.1016  -912.5329 H6            1 RES     
   29460 H6        1181.7314 -1373.6568  -910.8210 H6            1 RES     
   29461 H6        1182.2849 -1371.8024  -913.2473 H6            1 RES     
   29462 H6        1180.7633 -1372.0890  -912.3537 H6            1 RES     
   29463 H6        1181.8328 -1370.9872  -910.2901 H6            1 RES     
   29464 H6        1181.4488 -1369.9977  -911.7208 H6            1 RES     
   29465 H6        1184.2532 -1370.9889  -911.0340 H6            1 RES     
   29466 H6        1183.8611 -1370.0449  -912.4915 H6            1 RES     
   29467 H6        1184.9576 -1368.8784  -910.5406 H6            1 RES     
   29468 H6        1183.4818 -1369.0896  -909.5644 H6            1 RES     
   29469 H6        1183.8166 -1366.8116  -910.5363 H6            1 RES     
   29470 H6        1183.8933 -1367.4752  -912.1979 H6            1 RES     
   29471 H6        1181.7919 -1366.2823  -911.7341 H6            1 RES     
   29472 H6        1181.4640 -1367.9679  -912.1440 H6            1 RES     
   29473 H6        1181.5547 -1366.7624  -909.2910 H6            1 RES     
   29474 H6        1180.0704 -1367.1969  -910.2222 H6            1 RES     
   29475 H6        1181.1840 -1368.4934  -909.6656 H6            1 RES     
   29476 C0        1189.4262 -1381.1718  -909.1580 C0            1 RES     
   29477 C0        1188.1924 -1381.8886  -908.5567 C0            1 RES     
   29478 C0        1188.1616 -1383.4314  -908.6138 C0            1 RES     
   29479 C0        1187.8012 -1384.0933  -909.9669 C0            1 RES     
   29480 C0        1186.5222 -1383.5024  -910.5958 C0            1 RES     
   29481 C0        1185.8826 -1384.3498  -911.7051 C0            1 RES     
   29482 C0        1185.0411 -1385.4981  -911.1244 C0            1 RES     
   29483 C0        1184.3237 -1386.2895  -912.2279 C0            1 RES     
   29484 C0        1183.3487 -1387.3029  -911.6141 C0            1 RES     
   29485 C0        1182.7509 -1388.3599  -912.5677 C0            1 RES     
   29486 C0        1181.8609 -1387.8914  -913.7386 C0            1 RES     
   29487 C0        1182.6435 -1387.3591  -914.9565 C0            1 RES     
   29488 C0        1181.7765 -1386.9778  -916.1754 C0            1 RES     
   29489 C0        1181.3124 -1388.1225  -917.1103 C0            1 RES     
   29490 C0        1180.3050 -1389.1501  -916.5717 C0            1 RES     
   29491 C0        1179.0152 -1388.5079  -916.0650 C0            1 RES     
   29492 H6        1189.6589 -1381.5597  -910.1733 H6            1 RES     
   29493 H6        1190.2747 -1381.4614  -908.4982 H6            1 RES     
   29494 H6        1188.2002 -1381.6366  -907.4761 H6            1 RES     
   29495 H6        1187.2410 -1381.5249  -908.9672 H6            1 RES     
   29496 H6        1189.1077 -1383.8562  -908.2151 H6            1 RES     
   29497 H6        1187.3481 -1383.7363  -907.9178 H6            1 RES     
   29498 H6        1188.6344 -1384.0090  -910.6978 H6            1 RES     
   29499 H6        1187.6494 -1385.1714  -909.7476 H6            1 RES     
   29500 H6        1185.7457 -1383.2956  -909.8266 H6            1 RES     
   29501 H6        1186.8220 -1382.5510  -911.0547 H6            1 RES     
   29502 H6        1186.6536 -1384.7073  -912.4224 H6            1 RES     
   29503 H6        1185.1763 -1383.6925  -912.2574 H6            1 RES     
   29504 H6        1185.6756 -1386.1865  -910.5277 H6            1 RES     
   29505 H6        1184.2717 -1385.0531  -910.4531 H6            1 RES     
   29506 H6        1183.7460 -1385.5726  -912.8429 H6            1 RES     
   29507 H6        1185.0864 -1386.8073  -912.8479 H6            1 RES     
   29508 H6        1183.8963 -1387.8794  -910.8361 H6            1 RES     
   29509 H6        1182.5271 -1386.7486  -911.1075 H6            1 RES     
   29510 H6        1183.5521 -1389.0232  -912.9592 H6            1 RES     
   29511 H6        1182.1017 -1388.9854  -911.9145 H6            1 RES     
   29512 H6        1181.1058 -1387.1566  -913.3843 H6            1 RES     
   29513 H6        1181.3192 -1388.7921  -914.0537 H6            1 RES     
   29514 H6        1183.1480 -1386.4306  -914.6544 H6            1 RES     
   29515 H6        1183.4272 -1388.0792  -915.2767 H6            1 RES     
   29516 H6        1182.4300 -1386.3511  -916.8229 H6            1 RES     
   29517 H6        1180.9295 -1386.3313  -915.8621 H6            1 RES     
   29518 H6        1180.8397 -1387.6395  -917.9940 H6            1 RES     
   29519 H6        1182.2076 -1388.6716  -917.4756 H6            1 RES     
   29520 H6        1180.0455 -1389.8388  -917.4052 H6            1 RES     
   29521 H6        1180.7598 -1389.7839  -915.7908 H6            1 RES     
   29522 H6        1178.5354 -1387.9188  -916.8752 H6            1 RES     
   29523 H6        1178.3114 -1389.3017  -915.7375 H6            1 RES     
   29524 H6        1179.2166 -1387.8441  -915.1997 H6            1 RES     
   29525 C0        1201.4151 -1378.8711  -913.4012 C0            1 RES     
   29526 C1        1200.4358 -1378.3904  -912.3101 C1            1 RES     
   29527 C1        1201.0870 -1377.8134  -911.1160 C1            1 RES     
   29528 S2        1200.0361 -1378.2612  -909.7257 S2            1 RES     
   29529 C1        1198.7016 -1378.0912  -910.9316 C1            1 RES     
   29530 C1        1199.1103 -1378.3850  -912.2190 C1            1 RES     
   29531 C1        1202.4338 -1378.3325  -911.3021 C1            1 RES     
   29532 C1        1202.6687 -1378.8782  -912.5307 C1            1 RES     
   29533 C1        1204.0033 -1379.2909  -912.6949 C1            1 RES     
   29534 C1        1204.7838 -1378.9925  -911.5524 C1            1 RES     
   29535 S2        1203.8099 -1378.2377  -910.3835 S2            1 RES     
   29536 H3        1198.4148 -1378.6905  -912.9834 H3            1 RES     
   29537 H3        1204.3868 -1379.7611  -913.5919 H3            1 RES     
   29538 N4        1206.8207 -1380.2660  -912.0966 N4            1 RES     
   29539 C1        1208.1233 -1380.6377  -911.9194 C1            1 RES     
   29540 C1        1208.9241 -1380.0109  -910.9569 C1            1 RES     
   29541 C1        1208.3623 -1378.9992  -910.1883 C1            1 RES     
   29542 N4        1209.0459 -1378.3091  -909.2428 N4            1 RES     
   29543 S2        1207.9034 -1377.2566  -908.6820 S2            1 RES     
   29544 N4        1206.5603 -1377.6285  -909.5691 N4            1 RES     
   29545 C1        1207.0004 -1378.6347  -910.3700 C1            1 RES     
   29546 C1        1206.2223 -1379.2926  -911.3469 C1            1 RES     
   29547 H5        1208.5418 -1381.4311  -912.5251 H5            1 RES     
   29548 C0        1201.5759 -1377.7777  -914.5069 C0            1 RES     
   29549 C0        1200.2964 -1377.5208  -915.3093 C0            1 RES     
   29550 C0        1200.3444 -1376.3589  -916.3064 C0            1 RES     
   29551 C0        1200.5830 -1374.9665  -915.7008 C0            1 RES     
   29552 C0        1199.7047 -1374.6758  -914.4665 C0            1 RES     
   29553 C0        1199.7473 -1373.1970  -914.0629 C0            1 RES     
   29554 C0        1198.8206 -1372.3605  -914.9590 C0            1 RES     
   29555 C0        1198.8968 -1370.8722  -914.6161 C0            1 RES     
   29556 C0        1197.8090 -1370.0960  -915.3648 C0            1 RES     
   29557 C0        1197.9368 -1368.5595  -915.3592 C0            1 RES     
   29558 C0        1197.9700 -1367.8347  -913.9988 C0            1 RES     
   29559 C0        1199.3570 -1367.8534  -913.3181 C0            1 RES     
   29560 C0        1199.4459 -1367.0792  -911.9879 C0            1 RES     
   29561 C0        1199.6204 -1365.5433  -912.0667 C0            1 RES     
   29562 C0        1198.4642 -1364.7030  -912.6287 C0            1 RES     
   29563 C0        1197.1516 -1364.9237  -911.8793 C0            1 RES     
   29564 H6        1201.8627 -1376.8305  -914.0030 H6            1 RES     
   29565 H6        1202.4010 -1378.0484  -915.2014 H6            1 RES     
   29566 H6        1200.0858 -1378.4104  -915.9006 H6            1 RES     
   29567 H6        1199.4450 -1377.3388  -914.6278 H6            1 RES     
   29568 H6        1201.1065 -1376.5500  -917.0927 H6            1 RES     
   29569 H6        1199.3479 -1376.3401  -916.8023 H6            1 RES     
   29570 H6        1201.6475 -1374.8530  -915.4013 H6            1 RES     
   29571 H6        1200.3869 -1374.2403  -916.5164 H6            1 RES     
   29572 H6        1198.6462 -1374.9751  -914.6302 H6            1 RES     
   29573 H6        1200.1040 -1375.2821  -913.6253 H6            1 RES     
   29574 H6        1200.7970 -1372.8287  -914.0782 H6            1 RES     
   29575 H6        1199.3634 -1373.1024  -913.0234 H6            1 RES     
   29576 H6        1199.0770 -1372.4825  -916.0318 H6            1 RES     
   29577 H6        1197.7802 -1372.7249  -914.8025 H6            1 RES     
   29578 H6        1198.7241 -1370.7535  -913.5272 H6            1 RES     
   29579 H6        1199.9072 -1370.5026  -914.8972 H6            1 RES     
   29580 H6        1197.8237 -1370.3961  -916.4361 H6            1 RES     
   29581 H6        1196.8215 -1370.3919  -914.9449 H6            1 RES     
   29582 H6        1198.8165 -1368.2418  -915.9595 H6            1 RES     
   29583 H6        1197.0303 -1368.2025  -915.8975 H6            1 RES     
   29584 H6        1197.1741 -1368.2274  -913.3295 H6            1 RES     
   29585 H6        1197.7219 -1366.7921  -914.2314 H6            1 RES     
   29586 H6        1199.6024 -1368.8936  -913.0625 H6            1 RES     
   29587 H6        1200.1473 -1367.4875  -914.0089 H6            1 RES     
   29588 H6        1200.3806 -1367.4319  -911.4966 H6            1 RES     
   29589 H6        1198.6089 -1367.3671  -911.3175 H6            1 RES     
   29590 H6        1199.8037 -1365.1912  -911.0276 H6            1 RES     
   29591 H6        1200.5346 -1365.3161  -912.6577 H6            1 RES     
   29592 H6        1198.7453 -1363.6320  -912.5319 H6            1 RES     
   29593 H6        1198.3323 -1364.8803  -913.7099 H6            1 RES     
   29594 H6        1197.2807 -1364.6886  -910.8016 H6            1 RES     
   29595 H6        1196.3701 -1364.2564  -912.2993 H6            1 RES     
   29596 H6        1196.8053 -1365.9718  -911.9855 H6            1 RES     
   29597 C0        1201.1539 -1380.3279  -913.9671 C0            1 RES     
   29598 C0        1199.6702 -1380.6876  -914.2257 C0            1 RES     
   29599 C0        1199.3708 -1382.0222  -914.9424 C0            1 RES     
   29600 C0        1199.5802 -1382.0769  -916.4761 C0            1 RES     
   29601 C0        1198.9005 -1380.9029  -917.2111 C0            1 RES     
   29602 C0        1198.7181 -1381.0912  -918.7241 C0            1 RES     
   29603 C0        1197.4962 -1381.9692  -919.0406 C0            1 RES     
   29604 C0        1197.2553 -1382.0813  -920.5533 C0            1 RES     
   29605 C0        1195.9296 -1382.8011  -920.8335 C0            1 RES     
   29606 C0        1195.6677 -1383.2357  -922.2918 C0            1 RES     
   29607 C0        1195.5565 -1382.1523  -923.3857 C0            1 RES     
   29608 C0        1196.9126 -1381.6093  -923.8808 C0            1 RES     
   29609 C0        1196.8270 -1380.5972  -925.0430 C0            1 RES     
   29610 C0        1196.6536 -1381.1636  -926.4745 C0            1 RES     
   29611 C0        1195.3334 -1381.8619  -926.8349 C0            1 RES     
   29612 C0        1194.1114 -1380.9730  -926.6124 C0            1 RES     
   29613 H6        1201.7631 -1380.4565  -914.8879 H6            1 RES     
   29614 H6        1201.5088 -1381.0877  -913.2351 H6            1 RES     
   29615 H6        1199.2094 -1380.7860  -913.2211 H6            1 RES     
   29616 H6        1199.1225 -1379.8982  -914.7574 H6            1 RES     
   29617 H6        1199.9079 -1382.8601  -914.4485 H6            1 RES     
   29618 H6        1198.2820 -1382.1994  -914.7935 H6            1 RES     
   29619 H6        1200.6597 -1382.0914  -916.7409 H6            1 RES     
   29620 H6        1199.1355 -1383.0382  -916.8100 H6            1 RES     
   29621 H6        1197.9079 -1380.6632  -916.7698 H6            1 RES     
   29622 H6        1199.5619 -1380.0369  -917.0755 H6            1 RES     
   29623 H6        1199.6518 -1381.4772  -919.1888 H6            1 RES     
   29624 H6        1198.5052 -1380.0902  -919.1584 H6            1 RES     
   29625 H6        1197.6204 -1382.9844  -918.6090 H6            1 RES     
   29626 H6        1196.6029 -1381.4929  -918.5760 H6            1 RES     
   29627 H6        1197.1941 -1381.0562  -920.9671 H6            1 RES     
   29628 H6        1198.1042 -1382.6346  -921.0089 H6            1 RES     
   29629 H6        1195.9144 -1383.7393  -920.2360 H6            1 RES     
   29630 H6        1195.0915 -1382.1608  -920.4777 H6            1 RES     
   29631 H6        1196.4119 -1383.9988  -922.6064 H6            1 RES     
   29632 H6        1194.6777 -1383.7435  -922.2552 H6            1 RES     
   29633 H6        1194.8834 -1381.3320  -923.0545 H6            1 RES     
   29634 H6        1195.0678 -1382.6573  -924.2284 H6            1 RES     
   29635 H6        1197.3810 -1381.0624  -923.0505 H6            1 RES     
   29636 H6        1197.5968 -1382.4372  -924.1670 H6            1 RES     
   29637 H6        1197.8183 -1380.0917  -925.0730 H6            1 RES     
   29638 H6        1196.0777 -1379.8093  -924.8171 H6            1 RES     
   29639 H6        1196.7653 -1380.3042  -927.1722 H6            1 RES     
   29640 H6        1197.4882 -1381.8678  -926.6844 H6            1 RES     
   29641 H6        1195.3755 -1382.1300  -927.9132 H6            1 RES     
   29642 H6        1195.2261 -1382.8176  -926.2932 H6            1 RES     
   29643 H6        1194.2025 -1380.0390  -927.2065 H6            1 RES     
   29644 H6        1193.1976 -1381.5136  -926.9369 H6            1 RES     
   29645 H6        1193.9995 -1380.7150  -925.5395 H6            1 RES     
   29646 C0        1213.8985 -1381.4235  -912.1214 C0            1 RES     
   29647 C1        1212.6317 -1380.9627  -911.3708 C1            1 RES     
   29648 C1        1212.7309 -1381.0423  -909.8988 C1            1 RES     
   29649 S2        1211.0789 -1381.4635  -909.3230 S2            1 RES     
   29650 C1        1210.5456 -1380.4711  -910.7353 C1            1 RES     
   29651 C1        1211.4540 -1380.5008  -911.7769 C1            1 RES     
   29652 C1        1213.8723 -1381.9377  -909.7827 C1            1 RES     
   29653 C1        1214.5547 -1382.1437  -910.9466 C1            1 RES     
   29654 C1        1215.6959 -1382.9471  -910.7715 C1            1 RES     
   29655 C1        1215.8762 -1383.3048  -909.4139 C1            1 RES     
   29656 S2        1214.6301 -1382.6268  -908.4800 S2            1 RES     
   29657 H3        1211.1643 -1380.2917  -912.7935 H3            1 RES     
   29658 H3        1216.3617 -1383.2383  -911.5744 H3            1 RES     
   29659 N4        1217.6330 -1385.0130  -909.6643 N4            1 RES     
   29660 C1        1218.5916 -1385.8690  -909.2008 C1            1 RES     
   29661 C1        1218.9393 -1385.8911  -907.8447 C1            1 RES     
   29662 C1        1218.2876 -1385.0187  -906.9821 C1            1 RES     
   29663 N4        1218.5553 -1384.9372  -905.6557 N4            1 RES     
   29664 S2        1217.5136 -1383.7556  -905.1595 S2            1 RES     
   29665 N4        1216.7150 -1383.3326  -906.5425 N4            1 RES     
   29666 C1        1217.2790 -1384.1461  -907.4739 C1            1 RES     
   29667 C1        1216.9516 -1384.1555  -908.8469 C1            1 RES     
   29668 H5        1219.0852 -1386.5442  -909.8878 H5            1 RES     
   29669 C0        1214.7777 -1380.1910  -912.5112 C0            1 RES     
   29670 C0        1214.1155 -1379.2608  -913.5325 C0            1 RES     
   29671 C0        1214.8595 -1377.9585  -913.8443 C0            1 RES     
   29672 C0        1215.0453 -1376.9942  -912.6620 C0            1 RES     
   29673 C0        1213.7595 -1376.7802  -911.8371 C0            1 RES     
   29674 C0        1213.8909 -1375.6084  -910.8566 C0            1 RES     
   29675 C0        1213.6886 -1374.2675  -911.5794 C0            1 RES     
   29676 C0        1213.8795 -1373.0818  -910.6328 C0            1 RES     
   29677 C0        1213.4569 -1371.7787  -911.3181 C0            1 RES     
   29678 C0        1213.8627 -1370.4700  -910.6113 C0            1 RES     
   29679 C0        1213.3818 -1370.2424  -909.1641 C0            1 RES     
   29680 C0        1214.2407 -1370.9657  -908.1027 C0            1 RES     
   29681 C0        1213.8316 -1370.7060  -906.6391 C0            1 RES     
   29682 C0        1214.3177 -1369.3900  -905.9854 C0            1 RES     
   29683 C0        1213.7597 -1368.0603  -906.5137 C0            1 RES     
   29684 C0        1212.2343 -1367.9966  -906.4668 C0            1 RES     
   29685 H6        1214.9668 -1379.6074  -911.5853 H6            1 RES     
   29686 H6        1215.7637 -1380.5268  -912.9003 H6            1 RES     
   29687 H6        1214.0447 -1379.7955  -914.4782 H6            1 RES     
   29688 H6        1213.0959 -1378.9898  -913.2016 H6            1 RES     
   29689 H6        1215.8509 -1378.1740  -914.2983 H6            1 RES     
   29690 H6        1214.2468 -1377.4322  -914.6103 H6            1 RES     
   29691 H6        1215.8359 -1377.3706  -911.9772 H6            1 RES     
   29692 H6        1215.4087 -1376.0411  -913.0985 H6            1 RES     
   29693 H6        1212.8730 -1376.6099  -912.4865 H6            1 RES     
   29694 H6        1213.5813 -1377.7090  -911.2540 H6            1 RES     
   29695 H6        1214.8690 -1375.6618  -910.3290 H6            1 RES     
   29696 H6        1213.0835 -1375.6908  -910.0961 H6            1 RES     
   29697 H6        1214.3973 -1374.1530  -912.4256 H6            1 RES     
   29698 H6        1212.6517 -1374.2556  -911.9850 H6            1 RES     
   29699 H6        1213.2341 -1373.2345  -909.7442 H6            1 RES     
   29700 H6        1214.9512 -1373.0415  -910.3389 H6            1 RES     
   29701 H6        1213.9233 -1371.7337  -912.3273 H6            1 RES     
   29702 H6        1212.3528 -1371.8032  -911.4573 H6            1 RES     
   29703 H6        1214.9650 -1370.3338  -910.6514 H6            1 RES     
   29704 H6        1213.4132 -1369.6653  -911.2352 H6            1 RES     
   29705 H6        1212.3038 -1370.4958  -909.0683 H6            1 RES     
   29706 H6        1213.4835 -1369.1626  -909.0023 H6            1 RES     
   29707 H6        1214.1263 -1372.0492  -908.2454 H6            1 RES     
   29708 H6        1215.3191 -1370.7277  -908.2298 H6            1 RES     
   29709 H6        1214.3287 -1371.5034  -906.0420 H6            1 RES     
   29710 H6        1212.7382 -1370.8520  -906.5127 H6            1 RES     
   29711 H6        1214.0464 -1369.4518  -904.9084 H6            1 RES     
   29712 H6        1215.4275 -1369.3491  -906.0438 H6            1 RES     
   29713 H6        1214.1626 -1367.2455  -905.8741 H6            1 RES     
   29714 H6        1214.1291 -1367.8504  -907.5323 H6            1 RES     
   29715 H6        1211.8753 -1368.1534  -905.4276 H6            1 RES     
   29716 H6        1211.8956 -1366.9983  -906.8149 H6            1 RES     
   29717 H6        1211.7844 -1368.7647  -907.1283 H6            1 RES     
   29718 C0        1213.6618 -1382.4482  -913.3066 C0            1 RES     
   29719 C0        1212.4447 -1382.1481  -914.2156 C0            1 RES     
   29720 C0        1212.2712 -1383.0065  -915.4873 C0            1 RES     
   29721 C0        1213.1731 -1382.6797  -916.7033 C0            1 RES     
   29722 C0        1213.1709 -1381.1783  -917.0587 C0            1 RES     
   29723 C0        1213.7014 -1380.8326  -918.4577 C0            1 RES     
   29724 C0        1212.6352 -1381.0688  -919.5401 C0            1 RES     
   29725 C0        1213.1303 -1380.6345  -920.9276 C0            1 RES     
   29726 C0        1211.9887 -1380.7038  -921.9505 C0            1 RES     
   29727 C0        1212.3771 -1380.5627  -923.4382 C0            1 RES     
   29728 C0        1213.0156 -1379.2432  -923.9217 C0            1 RES     
   29729 C0        1214.5195 -1379.1130  -923.6048 C0            1 RES     
   29730 C0        1215.1989 -1377.8456  -924.1659 C0            1 RES     
   29731 C0        1215.6245 -1377.8611  -925.6554 C0            1 RES     
   29732 C0        1214.5301 -1377.8898  -926.7334 C0            1 RES     
   29733 C0        1213.5501 -1376.7242  -926.6159 C0            1 RES     
   29734 H6        1214.5988 -1382.5131  -913.9011 H6            1 RES     
   29735 H6        1213.4679 -1383.4643  -912.8955 H6            1 RES     
   29736 H6        1211.5505 -1382.3625  -913.5944 H6            1 RES     
   29737 H6        1212.3834 -1381.0944  -914.5186 H6            1 RES     
   29738 H6        1212.3319 -1384.0880  -915.2402 H6            1 RES     
   29739 H6        1211.2330 -1382.8093  -915.8371 H6            1 RES     
   29740 H6        1214.2214 -1383.0087  -916.5347 H6            1 RES     
   29741 H6        1212.7647 -1383.2681  -917.5522 H6            1 RES     
   29742 H6        1212.1564 -1380.7342  -916.9535 H6            1 RES     
   29743 H6        1213.8411 -1380.6948  -916.3357 H6            1 RES     
   29744 H6        1214.6481 -1381.3776  -918.6661 H6            1 RES     
   29745 H6        1213.9215 -1379.7430  -918.4676 H6            1 RES     
   29746 H6        1212.3377 -1382.1379  -919.5708 H6            1 RES     
   29747 H6        1211.7408 -1380.4588  -919.2784 H6            1 RES     
   29748 H6        1213.4752 -1379.5850  -920.8549 H6            1 RES     
   29749 H6        1213.9675 -1381.2990  -921.2309 H6            1 RES     
   29750 H6        1211.5074 -1381.7028  -921.8618 H6            1 RES     
   29751 H6        1211.2255 -1379.9371  -921.6886 H6            1 RES     
   29752 H6        1213.0163 -1381.4157  -923.7525 H6            1 RES     
   29753 H6        1211.4128 -1380.6606  -923.9858 H6            1 RES     
   29754 H6        1212.4405 -1378.3704  -923.5432 H6            1 RES     
   29755 H6        1212.9017 -1379.2627  -925.0128 H6            1 RES     
   29756 H6        1214.6302 -1379.0453  -922.5134 H6            1 RES     
   29757 H6        1215.0811 -1380.0096  -923.9451 H6            1 RES     
   29758 H6        1216.1606 -1377.7522  -923.6132 H6            1 RES     
   29759 H6        1214.6024 -1376.9427  -923.9162 H6            1 RES     
   29760 H6        1216.2210 -1376.9375  -925.8253 H6            1 RES     
   29761 H6        1216.3026 -1378.7259  -925.8250 H6            1 RES     
   29762 H6        1215.0296 -1377.8245  -927.7247 H6            1 RES     
   29763 H6        1213.9933 -1378.8542  -926.7321 H6            1 RES     
   29764 H6        1214.0940 -1375.7576  -926.6758 H6            1 RES     
   29765 H6        1212.8174 -1376.7724  -927.4487 H6            1 RES     
   29766 H6        1212.9916 -1376.7712  -925.6589 H6            1 RES     
   29767 C0        1223.4815 -1388.6118  -907.5956 C0            1 RES     
   29768 C1        1222.1274 -1387.9634  -907.2402 C1            1 RES     
   29769 C1        1221.4930 -1388.5033  -906.0199 C1            1 RES     
   29770 S2        1219.7209 -1388.4417  -906.3260 S2            1 RES     
   29771 C1        1220.1325 -1386.9547  -907.2660 C1            1 RES     
   29772 C1        1221.4027 -1387.0060  -907.8090 C1            1 RES     
   29773 C1        1222.2409 -1389.7449  -905.8894 C1            1 RES     
   29774 C1        1223.3417 -1389.8333  -906.6913 C1            1 RES     
   29775 C1        1224.0789 -1391.0111  -906.4728 C1            1 RES     
   29776 C1        1223.5147 -1391.7925  -905.4362 C1            1 RES     
   29777 S2        1222.1330 -1391.0137  -904.8288 S2            1 RES     
   29778 H3        1221.6813 -1386.4162  -908.6668 H3            1 RES     
   29779 H3        1224.9763 -1391.2750  -907.0185 H3            1 RES     
   29780 N4        1224.8066 -1393.8688  -905.7311 N4            1 RES     
   29781 C1        1225.2393 -1395.1112  -905.3630 C1            1 RES     
   29782 C1        1224.8845 -1395.6570  -904.1233 C1            1 RES     
   29783 C1        1224.0837 -1394.9025  -903.2751 C1            1 RES     
   29784 N4        1223.6948 -1395.3187  -902.0450 N4            1 RES     
   29785 S2        1222.7953 -1394.0409  -901.5105 S2            1 RES     
   29786 N4        1222.8549 -1392.9686  -902.7658 N4            1 RES     
   29787 C1        1223.6249 -1393.6189  -903.6778 C1            1 RES     
   29788 C1        1223.9991 -1393.1034  -904.9375 C1            1 RES     
   29789 H5        1225.8591 -1395.6855  -906.0394 H5            1 RES     
   29790 C0        1224.6608 -1387.7295  -907.0714 C0            1 RES     
   29791 C0        1224.7629 -1386.3655  -907.7613 C0            1 RES     
   29792 C0        1225.8027 -1385.3952  -907.1922 C0            1 RES     
   29793 C0        1225.5843 -1384.9593  -905.7345 C0            1 RES     
   29794 C0        1224.1304 -1384.5438  -905.4299 C0            1 RES     
   29795 C0        1224.0022 -1383.8456  -904.0706 C0            1 RES     
   29796 C0        1224.4355 -1382.3745  -904.1704 C0            1 RES     
   29797 C0        1224.3773 -1381.6757  -902.8114 C0            1 RES     
   29798 C0        1224.5966 -1380.1688  -902.9768 C0            1 RES     
   29799 C0        1224.8610 -1379.3692  -901.6854 C0            1 RES     
   29800 C0        1223.8016 -1379.4187  -900.5663 C0            1 RES     
   29801 C0        1223.8889 -1380.6835  -899.6831 C0            1 RES     
   29802 C0        1222.8894 -1380.7357  -898.5105 C0            1 RES     
   29803 C0        1223.2493 -1379.9434  -897.2306 C0            1 RES     
   29804 C0        1223.2828 -1378.4096  -897.3041 C0            1 RES     
   29805 C0        1221.9663 -1377.8104  -897.7948 C0            1 RES     
   29806 H6        1224.4936 -1387.5557  -905.9873 H6            1 RES     
   29807 H6        1225.6259 -1388.2715  -907.1769 H6            1 RES     
   29808 H6        1225.0504 -1386.5335  -908.7979 H6            1 RES     
   29809 H6        1223.7842 -1385.8514  -907.7441 H6            1 RES     
   29810 H6        1226.8269 -1385.8138  -907.2980 H6            1 RES     
   29811 H6        1225.7466 -1384.4811  -907.8251 H6            1 RES     
   29812 H6        1225.8608 -1385.7821  -905.0400 H6            1 RES     
   29813 H6        1226.2897 -1384.1217  -905.5565 H6            1 RES     
   29814 H6        1223.7147 -1383.8786  -906.2182 H6            1 RES     
   29815 H6        1223.5182 -1385.4708  -905.4087 H6            1 RES     
   29816 H6        1224.5773 -1384.4051  -903.2999 H6            1 RES     
   29817 H6        1222.9311 -1383.8474  -903.7711 H6            1 RES     
   29818 H6        1225.4693 -1382.2830  -904.5632 H6            1 RES     
   29819 H6        1223.7437 -1381.8661  -904.8794 H6            1 RES     
   29820 H6        1223.3699 -1381.8366  -902.3768 H6            1 RES     
   29821 H6        1225.1625 -1382.1179  -902.1600 H6            1 RES     
   29822 H6        1225.4873 -1380.0022  -903.6225 H6            1 RES     
   29823 H6        1223.7128 -1379.7464  -903.5054 H6            1 RES     
   29824 H6        1225.8507 -1379.6395  -901.2582 H6            1 RES     
   29825 H6        1224.9309 -1378.3106  -902.0224 H6            1 RES     
   29826 H6        1222.7832 -1379.2771  -900.9885 H6            1 RES     
   29827 H6        1224.0214 -1378.5497  -899.9345 H6            1 RES     
   29828 H6        1223.6482 -1381.5567  -900.3053 H6            1 RES     
   29829 H6        1224.9196 -1380.8296  -899.2932 H6            1 RES     
   29830 H6        1222.8744 -1381.7972  -898.1752 H6            1 RES     
   29831 H6        1221.8640 -1380.5027  -898.8672 H6            1 RES     
   29832 H6        1222.4900 -1380.2160  -896.4648 H6            1 RES     
   29833 H6        1224.2357 -1380.2951  -896.8565 H6            1 RES     
   29834 H6        1223.4807 -1378.0254  -896.2801 H6            1 RES     
   29835 H6        1224.1270 -1378.0593  -897.9226 H6            1 RES     
   29836 H6        1221.1315 -1378.1237  -897.1328 H6            1 RES     
   29837 H6        1222.0369 -1376.7025  -897.7805 H6            1 RES     
   29838 H6        1221.7477 -1378.1297  -898.8341 H6            1 RES     
   29839 C0        1223.6460 -1389.0815  -909.1000 C0            1 RES     
   29840 C0        1223.0965 -1388.1045  -910.1683 C0            1 RES     
   29841 C0        1223.3888 -1388.4249  -911.6503 C0            1 RES     
   29842 C0        1224.8063 -1388.1076  -912.1879 C0            1 RES     
   29843 C0        1225.2665 -1386.6761  -911.8422 C0            1 RES     
   29844 C0        1226.4570 -1386.1526  -912.6587 C0            1 RES     
   29845 C0        1226.0154 -1385.6533  -914.0443 C0            1 RES     
   29846 C0        1227.1873 -1385.0420  -914.8265 C0            1 RES     
   29847 C0        1226.6851 -1384.3853  -916.1191 C0            1 RES     
   29848 C0        1227.7564 -1383.9645  -917.1482 C0            1 RES     
   29849 C0        1228.7913 -1382.8899  -916.7523 C0            1 RES     
   29850 C0        1229.9532 -1383.4171  -915.8856 C0            1 RES     
   29851 C0        1231.0500 -1382.3806  -915.5613 C0            1 RES     
   29852 C0        1232.1237 -1382.1112  -916.6451 C0            1 RES     
   29853 C0        1231.6962 -1381.4196  -917.9488 C0            1 RES     
   29854 C0        1231.0276 -1380.0670  -917.7119 C0            1 RES     
   29855 H6        1224.7200 -1389.3059  -909.2777 H6            1 RES     
   29856 H6        1223.0856 -1390.0292  -909.2642 H6            1 RES     
   29857 H6        1221.9920 -1388.1504  -910.0721 H6            1 RES     
   29858 H6        1223.3940 -1387.0623  -909.9918 H6            1 RES     
   29859 H6        1223.1121 -1389.4751  -911.8851 H6            1 RES     
   29860 H6        1222.7052 -1387.7688  -912.2345 H6            1 RES     
   29861 H6        1225.5594 -1388.8305  -911.8062 H6            1 RES     
   29862 H6        1224.7478 -1388.2283  -913.2904 H6            1 RES     
   29863 H6        1224.4338 -1385.9445  -911.9359 H6            1 RES     
   29864 H6        1225.5889 -1386.7066  -910.7930 H6            1 RES     
   29865 H6        1227.2614 -1386.9182  -912.7183 H6            1 RES     
   29866 H6        1226.8624 -1385.2676  -912.1217 H6            1 RES     
   29867 H6        1225.5671 -1386.4798  -914.6345 H6            1 RES     
   29868 H6        1225.2429 -1384.8651  -913.8939 H6            1 RES     
   29869 H6        1227.6523 -1384.2624  -914.1927 H6            1 RES     
   29870 H6        1227.9200 -1385.8452  -915.0554 H6            1 RES     
   29871 H6        1226.0360 -1385.1180  -916.6476 H6            1 RES     
   29872 H6        1226.0555 -1383.5066  -915.8538 H6            1 RES     
   29873 H6        1228.2882 -1384.8587  -917.5390 H6            1 RES     
   29874 H6        1227.1733 -1383.5376  -917.9951 H6            1 RES     
   29875 H6        1228.2877 -1382.0205  -916.2766 H6            1 RES     
   29876 H6        1229.2116 -1382.5443  -917.7051 H6            1 RES     
   29877 H6        1229.5394 -1383.7191  -914.9132 H6            1 RES     
   29878 H6        1230.4224 -1384.3139  -916.3449 H6            1 RES     
   29879 H6        1231.6277 -1382.8119  -914.7131 H6            1 RES     
   29880 H6        1230.5956 -1381.4389  -915.1871 H6            1 RES     
   29881 H6        1232.8956 -1381.4632  -916.1739 H6            1 RES     
   29882 H6        1232.6171 -1383.0726  -916.9070 H6            1 RES     
   29883 H6        1232.6106 -1381.2525  -918.5590 H6            1 RES     
   29884 H6        1231.0480 -1382.0758  -918.5551 H6            1 RES     
   29885 H6        1231.7102 -1379.3942  -917.1505 H6            1 RES     
   29886 H6        1230.7888 -1379.5969  -918.6889 H6            1 RES     
   29887 H6        1230.0825 -1380.1864  -917.1439 H6            1 RES     
   29888 C0        1228.1261 -1399.7915  -903.4204 C0            1 RES     
   29889 C1        1226.9226 -1398.8291  -903.3438 C1            1 RES     
   29890 C1        1225.6908 -1399.4336  -902.7959 C1            1 RES     
   29891 S2        1224.3313 -1398.6421  -903.6697 S2            1 RES     
   29892 C1        1225.4227 -1397.2024  -903.6628 C1            1 RES     
   29893 C1        1226.7602 -1397.5515  -903.6704 C1            1 RES     
   29894 C1        1226.0272 -1400.8416  -902.9447 C1            1 RES     
   29895 C1        1227.3362 -1401.0855  -903.2444 C1            1 RES     
   29896 C1        1227.6339 -1402.4592  -903.2970 C1            1 RES     
   29897 C1        1226.5029 -1403.2486  -902.9785 C1            1 RES     
   29898 S2        1225.1808 -1402.2351  -902.6479 S2            1 RES     
   29899 H3        1227.5238 -1396.8797  -904.0269 H3            1 RES     
   29900 H3        1228.6120 -1402.8592  -903.5336 H3            1 RES     
   29901 N4        1227.3462 -1405.4671  -903.6370 N4            1 RES     
   29902 C1        1227.2990 -1406.8308  -903.7046 C1            1 RES     
   29903 C1        1226.2963 -1407.5482  -903.0411 C1            1 RES     
   29904 C1        1225.3517 -1406.8393  -902.3095 C1            1 RES     
   29905 N4        1224.3495 -1407.4270  -901.6112 N4            1 RES     
   29906 S2        1223.5723 -1406.1275  -900.9519 S2            1 RES     
   29907 N4        1224.4322 -1404.8326  -901.5114 N4            1 RES     
   29908 C1        1225.4012 -1405.4195  -902.2626 C1            1 RES     
   29909 C1        1226.4242 -1404.7300  -902.9484 C1            1 RES     
   29910 H5        1228.0415 -1407.3651  -904.2832 H5            1 RES     
   29911 C0        1229.0572 -1399.5971  -902.1798 C0            1 RES     
   29912 C0        1229.7400 -1398.2266  -902.1314 C0            1 RES     
   29913 C0        1230.5473 -1397.9167  -900.8670 C0            1 RES     
   29914 C0        1229.7482 -1397.8812  -899.5545 C0            1 RES     
   29915 C0        1228.4382 -1397.0731  -899.6557 C0            1 RES     
   29916 C0        1227.8145 -1396.8098  -898.2798 C0            1 RES     
   29917 C0        1228.5196 -1395.6393  -897.5765 C0            1 RES     
   29918 C0        1227.9561 -1395.4010  -896.1751 C0            1 RES     
   29919 C0        1228.5164 -1394.1014  -895.5889 C0            1 RES     
   29920 C0        1228.2810 -1393.8719  -894.0826 C0            1 RES     
   29921 C0        1226.8290 -1393.8583  -893.5643 C0            1 RES     
   29922 C0        1226.2353 -1395.2674  -893.3413 C0            1 RES     
   29923 C0        1224.8085 -1395.2938  -892.7580 C0            1 RES     
   29924 C0        1224.6591 -1395.1022  -891.2294 C0            1 RES     
   29925 C0        1225.0214 -1393.7381  -890.6236 C0            1 RES     
   29926 C0        1224.2452 -1392.5838  -891.2544 C0            1 RES     
   29927 H6        1228.4296 -1399.7017  -901.2695 H6            1 RES     
   29928 H6        1229.8287 -1400.3970  -902.1461 H6            1 RES     
   29929 H6        1230.4491 -1398.1746  -902.9560 H6            1 RES     
   29930 H6        1228.9936 -1397.4203  -902.2549 H6            1 RES     
   29931 H6        1231.3937 -1398.6292  -900.7594 H6            1 RES     
   29932 H6        1230.9798 -1396.9026  -901.0211 H6            1 RES     
   29933 H6        1229.4928 -1398.9132  -899.2299 H6            1 RES     
   29934 H6        1230.4304 -1397.4513  -898.7924 H6            1 RES     
   29935 H6        1228.5886 -1396.1017  -900.1759 H6            1 RES     
   29936 H6        1227.7233 -1397.6745  -900.2572 H6            1 RES     
   29937 H6        1227.8297 -1397.7408  -897.6708 H6            1 RES     
   29938 H6        1226.7536 -1396.5085  -898.4236 H6            1 RES     
   29939 H6        1229.6107 -1395.8203  -897.4852 H6            1 RES     
   29940 H6        1228.3651 -1394.7290  -898.1987 H6            1 RES     
   29941 H6        1226.8542 -1395.3033  -896.2517 H6            1 RES     
   29942 H6        1228.2311 -1396.2700  -895.5381 H6            1 RES     
   29943 H6        1229.6203 -1394.0894  -895.7271 H6            1 RES     
   29944 H6        1228.0943 -1393.2500  -896.1686 H6            1 RES     
   29945 H6        1228.8719 -1394.5978  -893.4833 H6            1 RES     
   29946 H6        1228.7081 -1392.8633  -893.8843 H6            1 RES     
   29947 H6        1226.1862 -1393.2372  -894.2249 H6            1 RES     
   29948 H6        1226.8844 -1393.3571  -892.5905 H6            1 RES     
   29949 H6        1226.1567 -1395.7675  -894.3166 H6            1 RES     
   29950 H6        1226.9032 -1395.8874  -892.7048 H6            1 RES     
   29951 H6        1224.4287 -1396.3245  -892.9389 H6            1 RES     
   29952 H6        1224.1462 -1394.6086  -893.3280 H6            1 RES     
   29953 H6        1223.5896 -1395.2912  -890.9891 H6            1 RES     
   29954 H6        1225.2566 -1395.8831  -890.7100 H6            1 RES     
   29955 H6        1224.7762 -1393.7725  -889.5401 H6            1 RES     
   29956 H6        1226.1084 -1393.5549  -890.6778 H6            1 RES     
   29957 H6        1223.1527 -1392.7507  -891.1450 H6            1 RES     
   29958 H6        1224.5145 -1391.6354  -890.7441 H6            1 RES     
   29959 H6        1224.4927 -1392.4801  -892.3305 H6            1 RES     
   29960 C0        1228.8947 -1399.8235  -904.8057 C0            1 RES     
   29961 C0        1229.1251 -1398.4455  -905.4734 C0            1 RES     
   29962 C0        1230.0216 -1398.3989  -906.7297 C0            1 RES     
   29963 C0        1231.5544 -1398.4778  -906.5220 C0            1 RES     
   29964 C0        1232.0619 -1397.4833  -905.4571 C0            1 RES     
   29965 C0        1233.5738 -1397.2151  -905.4750 C0            1 RES     
   29966 C0        1233.9552 -1396.2050  -906.5696 C0            1 RES     
   29967 C0        1235.4518 -1395.8627  -906.5283 C0            1 RES     
   29968 C0        1235.7675 -1394.7188  -907.5010 C0            1 RES     
   29969 C0        1237.2591 -1394.4352  -907.7821 C0            1 RES     
   29970 C0        1238.1653 -1393.9805  -906.6183 C0            1 RES     
   29971 C0        1238.6434 -1395.1255  -905.7021 C0            1 RES     
   29972 C0        1239.6295 -1394.7060  -904.5911 C0            1 RES     
   29973 C0        1241.1196 -1394.5409  -904.9812 C0            1 RES     
   29974 C0        1241.5114 -1393.3902  -905.9209 C0            1 RES     
   29975 C0        1241.0888 -1392.0212  -905.3917 C0            1 RES     
   29976 H6        1229.8559 -1400.3614  -904.6565 H6            1 RES     
   29977 H6        1228.3088 -1400.4076  -905.5504 H6            1 RES     
   29978 H6        1228.1242 -1398.1110  -905.8164 H6            1 RES     
   29979 H6        1229.4984 -1397.6856  -904.7741 H6            1 RES     
   29980 H6        1229.6924 -1399.1562  -907.4731 H6            1 RES     
   29981 H6        1229.8431 -1397.3978  -907.1827 H6            1 RES     
   29982 H6        1231.8762 -1399.5036  -906.2396 H6            1 RES     
   29983 H6        1232.0079 -1398.2384  -907.5071 H6            1 RES     
   29984 H6        1231.5359 -1396.5055  -905.5263 H6            1 RES     
   29985 H6        1231.8305 -1397.9368  -904.4842 H6            1 RES     
   29986 H6        1234.1422 -1398.1674  -905.5573 H6            1 RES     
   29987 H6        1233.8365 -1396.7396  -904.5050 H6            1 RES     
   29988 H6        1233.6926 -1396.5976  -907.5742 H6            1 RES     
   29989 H6        1233.3751 -1395.2711  -906.3908 H6            1 RES     
   29990 H6        1235.6988 -1395.5305  -905.5015 H6            1 RES     
   29991 H6        1236.0325 -1396.7722  -906.7931 H6            1 RES     
   29992 H6        1235.3217 -1394.9733  -908.4879 H6            1 RES     
   29993 H6        1235.2725 -1393.7909  -907.1364 H6            1 RES     
   29994 H6        1237.7272 -1395.3041  -908.2930 H6            1 RES     
   29995 H6        1237.2476 -1393.5961  -908.5136 H6            1 RES     
   29996 H6        1237.6758 -1393.1689  -906.0375 H6            1 RES     
   29997 H6        1239.0480 -1393.5482  -907.1059 H6            1 RES     
   29998 H6        1237.7653 -1395.5274  -905.1773 H6            1 RES     
   29999 H6        1239.0903 -1395.9536  -906.2935 H6            1 RES     
   30000 H6        1239.6348 -1395.5475  -903.8625 H6            1 RES     
   30001 H6        1239.2447 -1393.8185  -904.0455 H6            1 RES     
   30002 H6        1241.6817 -1394.3891  -904.0331 H6            1 RES     
   30003 H6        1241.4803 -1395.4931  -905.4281 H6            1 RES     
   30004 H6        1242.6188 -1393.3967  -906.0209 H6            1 RES     
   30005 H6        1241.1185 -1393.5546  -906.9392 H6            1 RES     
   30006 H6        1241.5360 -1391.8415  -904.3910 H6            1 RES     
   30007 H6        1241.4429 -1391.2312  -906.0868 H6            1 RES     
   30008 H6        1239.9846 -1391.9488  -905.3176 H6            1 RES     
   30009 C0        1227.9317 -1412.5902  -903.0406 C0            1 RES     
   30010 C1        1227.0517 -1411.3234  -903.0058 C1            1 RES     
   30011 C1        1225.6171 -1411.5689  -903.2599 C1            1 RES     
   30012 S2        1225.0245 -1410.1164  -904.1413 S2            1 RES     
   30013 C1        1226.2362 -1409.2452  -903.1230 C1            1 RES     
   30014 C1        1227.3175 -1410.0396  -902.7902 C1            1 RES     
   30015 C1        1225.7023 -1412.8915  -903.8610 C1            1 RES     
   30016 C1        1226.9192 -1413.4965  -903.7353 C1            1 RES     
   30017 C1        1226.9319 -1414.8030  -904.2563 C1            1 RES     
   30018 C1        1225.6574 -1415.1810  -904.7424 C1            1 RES     
   30019 S2        1224.5642 -1413.9006  -904.5189 S2            1 RES     
   30020 H3        1228.2726 -1409.6201  -902.5199 H3            1 RES     
   30021 H3        1227.8049 -1415.4437  -904.2659 H3            1 RES     
   30022 N4        1226.2626 -1417.2545  -905.9262 N4            1 RES     
   30023 C1        1225.9890 -1418.4218  -906.5812 C1            1 RES     
   30024 C1        1224.6733 -1418.8847  -906.7042 C1            1 RES     
   30025 C1        1223.6526 -1418.1291  -906.1410 C1            1 RES     
   30026 N4        1222.3460 -1418.4879  -906.1797 N4            1 RES     
   30027 S2        1221.6181 -1417.2505  -905.3633 S2            1 RES     
   30028 N4        1222.8741 -1416.2560  -904.9599 N4            1 RES     
   30029 C1        1223.9489 -1416.9070  -905.4783 C1            1 RES     
   30030 C1        1225.2872 -1416.4695  -905.3783 C1            1 RES     
   30031 H5        1226.7975 -1418.9944  -907.0170 H5            1 RES     
   30032 C0        1228.1739 -1413.1236  -901.5912 C0            1 RES     
   30033 C0        1229.0024 -1412.1767  -900.7172 C0            1 RES     
   30034 C0        1229.1496 -1412.5700  -899.2440 C0            1 RES     
   30035 C0        1227.8446 -1412.6333  -898.4345 C0            1 RES     
   30036 C0        1226.9283 -1411.4116  -898.6515 C0            1 RES     
   30037 C0        1225.7876 -1411.3564  -897.6282 C0            1 RES     
   30038 C0        1226.2831 -1410.7871  -896.2895 C0            1 RES     
   30039 C0        1225.1768 -1410.7835  -895.2338 C0            1 RES     
   30040 C0        1225.6294 -1410.0128  -893.9897 C0            1 RES     
   30041 C0        1224.7523 -1410.1677  -892.7312 C0            1 RES     
   30042 C0        1223.2636 -1409.7782  -892.8265 C0            1 RES     
   30043 C0        1222.3742 -1410.8715  -893.4598 C0            1 RES     
   30044 C0        1220.8682 -1410.5457  -893.5091 C0            1 RES     
   30045 C0        1220.0467 -1410.7720  -892.2170 C0            1 RES     
   30046 C0        1220.3329 -1409.8779  -891.0014 C0            1 RES     
   30047 C0        1220.1944 -1408.3892  -891.3142 C0            1 RES     
   30048 H6        1227.1808 -1413.2549  -901.1117 H6            1 RES     
   30049 H6        1228.6629 -1414.1218  -901.6231 H6            1 RES     
   30050 H6        1230.0140 -1412.1470  -901.1187 H6            1 RES     
   30051 H6        1228.5791 -1411.1558  -900.7478 H6            1 RES     
   30052 H6        1229.6844 -1413.5400  -899.1502 H6            1 RES     
   30053 H6        1229.7911 -1411.7869  -898.7811 H6            1 RES     
   30054 H6        1227.2698 -1413.5472  -898.6995 H6            1 RES     
   30055 H6        1228.1481 -1412.7271  -897.3714 H6            1 RES     
   30056 H6        1227.4949 -1410.4554  -898.6126 H6            1 RES     
   30057 H6        1226.4865 -1411.5047  -899.6667 H6            1 RES     
   30058 H6        1225.3282 -1412.3635  -897.5160 H6            1 RES     
   30059 H6        1225.0063 -1410.6607  -898.0059 H6            1 RES     
   30060 H6        1227.1387 -1411.3722  -895.8930 H6            1 RES     
   30061 H6        1226.6254 -1409.7435  -896.4724 H6            1 RES     
   30062 H6        1224.2888 -1410.2724  -895.6576 H6            1 RES     
   30063 H6        1224.9387 -1411.8389  -894.9771 H6            1 RES     
   30064 H6        1226.6433 -1410.3645  -893.6961 H6            1 RES     
   30065 H6        1225.7108 -1408.9361  -894.2602 H6            1 RES     
   30066 H6        1224.8306 -1411.2009  -892.3294 H6            1 RES     
   30067 H6        1225.2196 -1409.4912  -891.9809 H6            1 RES     
   30068 H6        1223.1498 -1408.8004  -893.3427 H6            1 RES     
   30069 H6        1222.9430 -1409.6424  -891.7866 H6            1 RES     
   30070 H6        1222.6758 -1410.9975  -894.5089 H6            1 RES     
   30071 H6        1222.5213 -1411.8504  -892.9539 H6            1 RES     
   30072 H6        1220.4288 -1411.2641  -894.2372 H6            1 RES     
   30073 H6        1220.7068 -1409.5310  -893.9302 H6            1 RES     
   30074 H6        1218.9790 -1410.6192  -892.4891 H6            1 RES     
   30075 H6        1220.1581 -1411.8327  -891.9023 H6            1 RES     
   30076 H6        1219.5982 -1410.1377  -890.2090 H6            1 RES     
   30077 H6        1221.3255 -1410.0969  -890.5714 H6            1 RES     
   30078 H6        1219.1739 -1408.1701  -891.6935 H6            1 RES     
   30079 H6        1220.3657 -1407.8002  -890.3889 H6            1 RES     
   30080 H6        1220.9410 -1408.0712  -892.0700 H6            1 RES     
   30081 C0        1229.2461 -1412.4912  -903.9201 C0            1 RES     
   30082 C0        1230.0308 -1411.1617  -903.8006 C0            1 RES     
   30083 C0        1231.4084 -1411.0779  -904.4931 C0            1 RES     
   30084 C0        1232.6065 -1411.7684  -903.7954 C0            1 RES     
   30085 C0        1232.7257 -1411.3888  -902.3047 C0            1 RES     
   30086 C0        1234.0813 -1411.6987  -901.6533 C0            1 RES     
   30087 C0        1235.1279 -1410.6235  -901.9889 C0            1 RES     
   30088 C0        1236.4566 -1410.8797  -901.2626 C0            1 RES     
   30089 C0        1237.4147 -1409.6983  -901.4642 C0            1 RES     
   30090 C0        1238.8817 -1409.9096  -901.0314 C0            1 RES     
   30091 C0        1239.1900 -1410.1814  -899.5436 C0            1 RES     
   30092 C0        1238.9386 -1411.6370  -899.0995 C0            1 RES     
   30093 C0        1239.3337 -1411.9535  -897.6413 C0            1 RES     
   30094 C0        1240.8285 -1412.2369  -897.3498 C0            1 RES     
   30095 C0        1241.8373 -1411.0870  -897.4935 C0            1 RES     
   30096 C0        1241.4889 -1409.8794  -896.6257 C0            1 RES     
   30097 H6        1229.8933 -1413.3611  -903.6754 H6            1 RES     
   30098 H6        1228.9866 -1412.5739  -904.9994 H6            1 RES     
   30099 H6        1229.4027 -1410.3999  -904.3070 H6            1 RES     
   30100 H6        1230.1641 -1410.8327  -902.7614 H6            1 RES     
   30101 H6        1231.3344 -1411.4078  -905.5515 H6            1 RES     
   30102 H6        1231.6669 -1409.9953  -904.5059 H6            1 RES     
   30103 H6        1232.5475 -1412.8750  -903.8820 H6            1 RES     
   30104 H6        1233.5125 -1411.4325  -904.3430 H6            1 RES     
   30105 H6        1232.4986 -1410.3129  -902.1368 H6            1 RES     
   30106 H6        1231.9741 -1411.9913  -901.7777 H6            1 RES     
   30107 H6        1234.4221 -1412.7230  -901.9204 H6            1 RES     
   30108 H6        1233.9351 -1411.6602  -900.5519 H6            1 RES     
   30109 H6        1235.3068 -1410.5786  -903.0837 H6            1 RES     
   30110 H6        1234.7274 -1409.6396  -901.6542 H6            1 RES     
   30111 H6        1236.2419 -1410.9787  -900.1810 H6            1 RES     
   30112 H6        1236.9035 -1411.8170  -901.6578 H6            1 RES     
   30113 H6        1237.4551 -1409.4698  -902.5521 H6            1 RES     
   30114 H6        1236.9970 -1408.8054  -900.9471 H6            1 RES     
   30115 H6        1239.3578 -1410.6975  -901.6540 H6            1 RES     
   30116 H6        1239.3849 -1408.9489  -901.2828 H6            1 RES     
   30117 H6        1238.6510 -1409.4569  -898.8953 H6            1 RES     
   30118 H6        1240.2633 -1409.9784  -899.4405 H6            1 RES     
   30119 H6        1237.8574 -1411.8259  -899.1572 H6            1 RES     
   30120 H6        1239.4429 -1412.3574  -899.7792 H6            1 RES     
   30121 H6        1238.8260 -1412.9132  -897.3955 H6            1 RES     
   30122 H6        1238.9160 -1411.1899  -896.9516 H6            1 RES     
   30123 H6        1240.8861 -1412.5871  -896.2954 H6            1 RES     
   30124 H6        1241.1658 -1413.0780  -897.9943 H6            1 RES     
   30125 H6        1242.8323 -1411.4676  -897.1748 H6            1 RES     
   30126 H6        1241.9556 -1410.7889  -898.5497 H6            1 RES     
   30127 H6        1241.4284 -1410.1785  -895.5577 H6            1 RES     
   30128 H6        1242.2782 -1409.1063  -896.7346 H6            1 RES     
   30129 H6        1240.5218 -1409.4342  -896.9364 H6            1 RES     
   30130 C0        1225.0924 -1423.9349  -908.2583 C0            1 RES     
   30131 C1        1224.5686 -1422.5051  -908.0101 C1            1 RES     
   30132 C1        1223.4136 -1422.1234  -908.8486 C1            1 RES     
   30133 S2        1223.6103 -1420.3647  -909.1745 S2            1 RES     
   30134 C1        1224.3308 -1420.3374  -907.5180 C1            1 RES     
   30135 C1        1224.9430 -1421.5317  -907.1869 C1            1 RES     
   30136 C1        1223.5165 -1423.1456  -909.8794 C1            1 RES     
   30137 C1        1224.3809 -1424.1612  -909.5894 C1            1 RES     
   30138 C1        1224.3866 -1425.1664  -910.5733 C1            1 RES     
   30139 C1        1223.4537 -1424.8919  -911.6020 C1            1 RES     
   30140 S2        1222.6599 -1423.4277  -911.2696 S2            1 RES     
   30141 H3        1225.7135 -1421.5895  -906.4357 H3            1 RES     
   30142 H3        1225.0141 -1426.0481  -910.5360 H3            1 RES     
   30143 N4        1224.1345 -1426.5956  -913.2454 N4            1 RES     
   30144 C1        1223.9861 -1427.3339  -914.3853 C1            1 RES     
   30145 C1        1222.8280 -1427.2261  -915.1648 C1            1 RES     
   30146 C1        1221.8316 -1426.3520  -914.7489 C1            1 RES     
   30147 N4        1220.6612 -1426.1805  -915.4108 N4            1 RES     
   30148 S2        1219.8883 -1425.0622  -914.4729 S2            1 RES     
   30149 N4        1220.9647 -1424.7612  -913.2564 N4            1 RES     
   30150 C1        1222.0064 -1425.5759  -913.5709 C1            1 RES     
   30151 C1        1223.1899 -1425.7076  -912.8130 C1            1 RES     
   30152 H5        1224.7755 -1428.0064  -914.6952 H5            1 RES     
   30153 C0        1224.5030 -1424.9212  -907.1981 C0            1 RES     
   30154 C0        1224.9790 -1424.6447  -905.7685 C0            1 RES     
   30155 C0        1224.3243 -1425.4795  -904.6635 C0            1 RES     
   30156 C0        1222.8072 -1425.2973  -904.4969 C0            1 RES     
   30157 C0        1222.3640 -1423.8198  -904.4895 C0            1 RES     
   30158 C0        1220.9085 -1423.6559  -904.0355 C0            1 RES     
   30159 C0        1220.8037 -1423.7282  -902.5041 C0            1 RES     
   30160 C0        1219.3522 -1423.6319  -902.0326 C0            1 RES     
   30161 C0        1219.2951 -1423.4827  -900.5092 C0            1 RES     
   30162 C0        1217.9121 -1423.6698  -899.8539 C0            1 RES     
   30163 C0        1216.7583 -1422.7542  -900.3098 C0            1 RES     
   30164 C0        1216.0866 -1423.2088  -901.6250 C0            1 RES     
   30165 C0        1214.8837 -1422.3567  -902.0764 C0            1 RES     
   30166 C0        1213.5184 -1422.6370  -901.4035 C0            1 RES     
   30167 C0        1213.3564 -1422.3097  -899.9117 C0            1 RES     
   30168 C0        1213.6770 -1420.8523  -899.5859 C0            1 RES     
   30169 H6        1223.3976 -1424.8158  -907.2197 H6            1 RES     
   30170 H6        1224.7428 -1425.9719  -907.4720 H6            1 RES     
   30171 H6        1226.0432 -1424.8695  -905.7188 H6            1 RES     
   30172 H6        1224.8299 -1423.5794  -905.5126 H6            1 RES     
   30173 H6        1224.5486 -1426.5590  -904.8045 H6            1 RES     
   30174 H6        1224.8048 -1425.1583  -903.7122 H6            1 RES     
   30175 H6        1222.2637 -1425.8166  -905.3158 H6            1 RES     
   30176 H6        1222.5407 -1425.8039  -903.5464 H6            1 RES     
   30177 H6        1223.0168 -1423.1937  -903.8426 H6            1 RES     
   30178 H6        1222.4529 -1423.4419  -905.5306 H6            1 RES     
   30179 H6        1220.2654 -1424.4107  -904.5401 H6            1 RES     
   30180 H6        1220.5554 -1422.6451  -904.3363 H6            1 RES     
   30181 H6        1221.2330 -1424.6739  -902.1133 H6            1 RES     
   30182 H6        1221.3875 -1422.8776  -902.0852 H6            1 RES     
   30183 H6        1218.8938 -1422.7315  -902.4893 H6            1 RES     
   30184 H6        1218.8201 -1424.5527  -902.3574 H6            1 RES     
   30185 H6        1219.9545 -1424.2499  -900.0462 H6            1 RES     
   30186 H6        1219.7037 -1422.4818  -900.2439 H6            1 RES     
   30187 H6        1217.5858 -1424.7292  -899.9337 H6            1 RES     
   30188 H6        1218.0853 -1423.4638  -898.7738 H6            1 RES     
   30189 H6        1217.0980 -1421.6971  -900.3614 H6            1 RES     
   30190 H6        1216.0130 -1422.8235  -899.5084 H6            1 RES     
   30191 H6        1216.8219 -1423.1212  -902.4369 H6            1 RES     
   30192 H6        1215.7801 -1424.2759  -901.5704 H6            1 RES     
   30193 H6        1214.7156 -1422.6164  -903.1458 H6            1 RES     
   30194 H6        1215.1443 -1421.2776  -902.0508 H6            1 RES     
   30195 H6        1212.7638 -1422.0322  -901.9532 H6            1 RES     
   30196 H6        1213.2568 -1423.7072  -901.5551 H6            1 RES     
   30197 H6        1212.2976 -1422.5043  -899.6350 H6            1 RES     
   30198 H6        1213.9583 -1422.9921  -899.2871 H6            1 RES     
   30199 H6        1213.0270 -1420.1745  -900.1787 H6            1 RES     
   30200 H6        1213.4960 -1420.6669  -898.5064 H6            1 RES     
   30201 H6        1214.7397 -1420.6215  -899.8032 H6            1 RES     
   30202 C0        1226.6578 -1424.0685  -908.4641 C0            1 RES     
   30203 C0        1227.5316 -1423.2159  -907.5115 C0            1 RES     
   30204 C0        1229.0588 -1423.4409  -907.5461 C0            1 RES     
   30205 C0        1229.6170 -1424.6935  -906.8262 C0            1 RES     
   30206 C0        1229.0803 -1424.8407  -905.3871 C0            1 RES     
   30207 C0        1229.8696 -1425.8010  -904.4856 C0            1 RES     
   30208 C0        1231.1357 -1425.1347  -903.9226 C0            1 RES     
   30209 C0        1231.8766 -1426.0598  -902.9459 C0            1 RES     
   30210 C0        1233.0235 -1425.3068  -902.2590 C0            1 RES     
   30211 C0        1234.0319 -1426.1564  -901.4557 C0            1 RES     
   30212 C0        1233.5317 -1426.9471  -900.2280 C0            1 RES     
   30213 C0        1232.8207 -1428.2716  -900.5734 C0            1 RES     
   30214 C0        1232.4003 -1429.1247  -899.3576 C0            1 RES     
   30215 C0        1233.4862 -1430.0065  -898.6917 C0            1 RES     
   30216 C0        1234.6427 -1429.3169  -897.9518 C0            1 RES     
   30217 C0        1234.1644 -1428.3786  -896.8456 C0            1 RES     
   30218 H6        1226.9258 -1425.1451  -908.3966 H6            1 RES     
   30219 H6        1226.9355 -1423.7290  -909.4873 H6            1 RES     
   30220 H6        1227.3840 -1422.1647  -907.8348 H6            1 RES     
   30221 H6        1227.2130 -1423.2799  -906.4626 H6            1 RES     
   30222 H6        1229.4373 -1423.3937  -908.5897 H6            1 RES     
   30223 H6        1229.4971 -1422.5753  -907.0005 H6            1 RES     
   30224 H6        1229.3925 -1425.6238  -907.3915 H6            1 RES     
   30225 H6        1230.7201 -1424.5664  -906.8054 H6            1 RES     
   30226 H6        1229.0149 -1423.8569  -904.8720 H6            1 RES     
   30227 H6        1228.0673 -1425.2536  -905.4824 H6            1 RES     
   30228 H6        1230.0898 -1426.7515  -905.0193 H6            1 RES     
   30229 H6        1229.2253 -1426.0379  -903.6111 H6            1 RES     
   30230 H6        1231.8211 -1424.8381  -904.7440 H6            1 RES     
   30231 H6        1230.8241 -1424.2180  -903.3719 H6            1 RES     
   30232 H6        1231.1563 -1426.3874  -902.1716 H6            1 RES     
   30233 H6        1232.2658 -1426.9344  -903.5098 H6            1 RES     
   30234 H6        1233.6227 -1424.7995  -903.0470 H6            1 RES     
   30235 H6        1232.5923 -1424.5180  -901.6027 H6            1 RES     
   30236 H6        1234.5840 -1426.8428  -902.1334 H6            1 RES     
   30237 H6        1234.7701 -1425.4176  -901.0702 H6            1 RES     
   30238 H6        1232.9012 -1426.3012  -899.5791 H6            1 RES     
   30239 H6        1234.4412 -1427.1899  -899.6644 H6            1 RES     
   30240 H6        1231.8856 -1428.0267  -901.0963 H6            1 RES     
   30241 H6        1233.4374 -1428.8919  -901.2592 H6            1 RES     
   30242 H6        1231.6612 -1429.8593  -899.7489 H6            1 RES     
   30243 H6        1231.8615 -1428.5008  -898.6134 H6            1 RES     
   30244 H6        1232.9632 -1430.6473  -897.9476 H6            1 RES     
   30245 H6        1233.9194 -1430.6828  -899.4608 H6            1 RES     
   30246 H6        1235.2684 -1430.1101  -897.4874 H6            1 RES     
   30247 H6        1235.3069 -1428.7859  -898.6555 H6            1 RES     
   30248 H6        1233.5438 -1428.9351  -896.1116 H6            1 RES     
   30249 H6        1235.0430 -1427.9519  -896.3178 H6            1 RES     
   30250 H6        1233.5713 -1427.5409  -897.2657 H6            1 RES     
   30251 H5           6.1612    10.6825    12.4804 H5            1 RES     
   30252 H3        1222.7076 -1427.8172  -916.0775 H3            1 RES     
@<TRIPOS>BOND
       1        1        2 1
       2        1        8 1
       3        1       24 1
       4        1       73 1
       5        2        3 1
       6        2        6 1
       7        3        4 1
       8        3        7 1
       9        4        5 1
      10        5        6 1
      11        5    30251 1
      12        6       12 1
      13        7        8 1
      14        7       11 1
      15        8        9 1
      16        9       10 1
      17        9       13 1
      18       10       11 1
      19       10       22 1
      20       14       15 1
      21       14       22 1
      22       15       16 1
      23       15       23 1
      24       16       17 1
      25       16      126 1
      26       17       18 1
      27       17       21 1
      28       18       19 1
      29       19       20 1
      30       20       21 1
      31       21       22 1
      32       24       25 1
      33       24       40 1
      34       24       41 1
      35       25       26 1
      36       25       42 1
      37       25       43 1
      38       26       27 1
      39       26       44 1
      40       26       45 1
      41       27       28 1
      42       27       46 1
      43       27       47 1
      44       28       29 1
      45       28       48 1
      46       28       49 1
      47       29       30 1
      48       29       50 1
      49       29       51 1
      50       30       31 1
      51       30       52 1
      52       30       53 1
      53       31       32 1
      54       31       54 1
      55       31       55 1
      56       32       33 1
      57       32       56 1
      58       32       57 1
      59       33       34 1
      60       33       58 1
      61       33       59 1
      62       34       35 1
      63       34       60 1
      64       34       61 1
      65       35       36 1
      66       35       62 1
      67       35       63 1
      68       36       37 1
      69       36       64 1
      70       36       65 1
      71       37       38 1
      72       37       66 1
      73       37       67 1
      74       38       39 1
      75       38       68 1
      76       38       69 1
      77       39       70 1
      78       39       71 1
      79       39       72 1
      80       73       74 1
      81       73       89 1
      82       73       90 1
      83       74       75 1
      84       74       91 1
      85       74       92 1
      86       75       76 1
      87       75       93 1
      88       75       94 1
      89       76       77 1
      90       76       95 1
      91       76       96 1
      92       77       78 1
      93       77       97 1
      94       77       98 1
      95       78       79 1
      96       78       99 1
      97       78      100 1
      98       79       80 1
      99       79      101 1
     100       79      102 1
     101       80       81 1
     102       80      103 1
     103       80      104 1
     104       81       82 1
     105       81      105 1
     106       81      106 1
     107       82       83 1
     108       82      107 1
     109       82      108 1
     110       83       84 1
     111       83      109 1
     112       83      110 1
     113       84       85 1
     114       84      111 1
     115       84      112 1
     116       85       86 1
     117       85      113 1
     118       85      114 1
     119       86       87 1
     120       86      115 1
     121       86      116 1
     122       87       88 1
     123       87      117 1
     124       87      118 1
     125       88      119 1
     126       88      120 1
     127       88      121 1
     128      122      123 1
     129      122      129 1
     130      122      145 1
     131      122      194 1
     132      123      124 1
     133      123      127 1
     134      124      125 1
     135      124      128 1
     136      125      126 1
     137      126      127 1
     138      127      133 1
     139      128      129 1
     140      128      132 1
     141      129      130 1
     142      130      131 1
     143      130      134 1
     144      131      132 1
     145      131      143 1
     146      135      136 1
     147      135      143 1
     148      136      137 1
     149      136      144 1
     150      137      138 1
     151      137      247 1
     152      138      139 1
     153      138      142 1
     154      139      140 1
     155      140      141 1
     156      141      142 1
     157      142      143 1
     158      145      146 1
     159      145      161 1
     160      145      162 1
     161      146      147 1
     162      146      163 1
     163      146      164 1
     164      147      148 1
     165      147      165 1
     166      147      166 1
     167      148      149 1
     168      148      167 1
     169      148      168 1
     170      149      150 1
     171      149      169 1
     172      149      170 1
     173      150      151 1
     174      150      171 1
     175      150      172 1
     176      151      152 1
     177      151      173 1
     178      151      174 1
     179      152      153 1
     180      152      175 1
     181      152      176 1
     182      153      154 1
     183      153      177 1
     184      153      178 1
     185      154      155 1
     186      154      179 1
     187      154      180 1
     188      155      156 1
     189      155      181 1
     190      155      182 1
     191      156      157 1
     192      156      183 1
     193      156      184 1
     194      157      158 1
     195      157      185 1
     196      157      186 1
     197      158      159 1
     198      158      187 1
     199      158      188 1
     200      159      160 1
     201      159      189 1
     202      159      190 1
     203      160      191 1
     204      160      192 1
     205      160      193 1
     206      194      195 1
     207      194      210 1
     208      194      211 1
     209      195      196 1
     210      195      212 1
     211      195      213 1
     212      196      197 1
     213      196      214 1
     214      196      215 1
     215      197      198 1
     216      197      216 1
     217      197      217 1
     218      198      199 1
     219      198      218 1
     220      198      219 1
     221      199      200 1
     222      199      220 1
     223      199      221 1
     224      200      201 1
     225      200      222 1
     226      200      223 1
     227      201      202 1
     228      201      224 1
     229      201      225 1
     230      202      203 1
     231      202      226 1
     232      202      227 1
     233      203      204 1
     234      203      228 1
     235      203      229 1
     236      204      205 1
     237      204      230 1
     238      204      231 1
     239      205      206 1
     240      205      232 1
     241      205      233 1
     242      206      207 1
     243      206      234 1
     244      206      235 1
     245      207      208 1
     246      207      236 1
     247      207      237 1
     248      208      209 1
     249      208      238 1
     250      208      239 1
     251      209      240 1
     252      209      241 1
     253      209      242 1
     254      243      244 1
     255      243      250 1
     256      243      266 1
     257      243      315 1
     258      244      245 1
     259      244      248 1
     260      245      246 1
     261      245      249 1
     262      246      247 1
     263      247      248 1
     264      248      254 1
     265      249      250 1
     266      249      253 1
     267      250      251 1
     268      251      252 1
     269      251      255 1
     270      252      253 1
     271      252      264 1
     272      256      257 1
     273      256      264 1
     274      257      258 1
     275      257      265 1
     276      258      259 1
     277      258      368 1
     278      259      260 1
     279      259      263 1
     280      260      261 1
     281      261      262 1
     282      262      263 1
     283      263      264 1
     284      266      267 1
     285      266      282 1
     286      266      283 1
     287      267      268 1
     288      267      284 1
     289      267      285 1
     290      268      269 1
     291      268      286 1
     292      268      287 1
     293      269      270 1
     294      269      288 1
     295      269      289 1
     296      270      271 1
     297      270      290 1
     298      270      291 1
     299      271      272 1
     300      271      292 1
     301      271      293 1
     302      272      273 1
     303      272      294 1
     304      272      295 1
     305      273      274 1
     306      273      296 1
     307      273      297 1
     308      274      275 1
     309      274      298 1
     310      274      299 1
     311      275      276 1
     312      275      300 1
     313      275      301 1
     314      276      277 1
     315      276      302 1
     316      276      303 1
     317      277      278 1
     318      277      304 1
     319      277      305 1
     320      278      279 1
     321      278      306 1
     322      278      307 1
     323      279      280 1
     324      279      308 1
     325      279      309 1
     326      280      281 1
     327      280      310 1
     328      280      311 1
     329      281      312 1
     330      281      313 1
     331      281      314 1
     332      315      316 1
     333      315      331 1
     334      315      332 1
     335      316      317 1
     336      316      333 1
     337      316      334 1
     338      317      318 1
     339      317      335 1
     340      317      336 1
     341      318      319 1
     342      318      337 1
     343      318      338 1
     344      319      320 1
     345      319      339 1
     346      319      340 1
     347      320      321 1
     348      320      341 1
     349      320      342 1
     350      321      322 1
     351      321      343 1
     352      321      344 1
     353      322      323 1
     354      322      345 1
     355      322      346 1
     356      323      324 1
     357      323      347 1
     358      323      348 1
     359      324      325 1
     360      324      349 1
     361      324      350 1
     362      325      326 1
     363      325      351 1
     364      325      352 1
     365      326      327 1
     366      326      353 1
     367      326      354 1
     368      327      328 1
     369      327      355 1
     370      327      356 1
     371      328      329 1
     372      328      357 1
     373      328      358 1
     374      329      330 1
     375      329      359 1
     376      329      360 1
     377      330      361 1
     378      330      362 1
     379      330      363 1
     380      364      365 1
     381      364      371 1
     382      364      387 1
     383      364      436 1
     384      365      366 1
     385      365      369 1
     386      366      367 1
     387      366      370 1
     388      367      368 1
     389      368      369 1
     390      369      375 1
     391      370      371 1
     392      370      374 1
     393      371      372 1
     394      372      373 1
     395      372      376 1
     396      373      374 1
     397      373      385 1
     398      377      378 1
     399      377      385 1
     400      378      379 1
     401      378      386 1
     402      379      380 1
     403      379      489 1
     404      380      381 1
     405      380      384 1
     406      381      382 1
     407      382      383 1
     408      383      384 1
     409      384      385 1
     410      387      388 1
     411      387      403 1
     412      387      404 1
     413      388      389 1
     414      388      405 1
     415      388      406 1
     416      389      390 1
     417      389      407 1
     418      389      408 1
     419      390      391 1
     420      390      409 1
     421      390      410 1
     422      391      392 1
     423      391      411 1
     424      391      412 1
     425      392      393 1
     426      392      413 1
     427      392      414 1
     428      393      394 1
     429      393      415 1
     430      393      416 1
     431      394      395 1
     432      394      417 1
     433      394      418 1
     434      395      396 1
     435      395      419 1
     436      395      420 1
     437      396      397 1
     438      396      421 1
     439      396      422 1
     440      397      398 1
     441      397      423 1
     442      397      424 1
     443      398      399 1
     444      398      425 1
     445      398      426 1
     446      399      400 1
     447      399      427 1
     448      399      428 1
     449      400      401 1
     450      400      429 1
     451      400      430 1
     452      401      402 1
     453      401      431 1
     454      401      432 1
     455      402      433 1
     456      402      434 1
     457      402      435 1
     458      436      437 1
     459      436      452 1
     460      436      453 1
     461      437      438 1
     462      437      454 1
     463      437      455 1
     464      438      439 1
     465      438      456 1
     466      438      457 1
     467      439      440 1
     468      439      458 1
     469      439      459 1
     470      440      441 1
     471      440      460 1
     472      440      461 1
     473      441      442 1
     474      441      462 1
     475      441      463 1
     476      442      443 1
     477      442      464 1
     478      442      465 1
     479      443      444 1
     480      443      466 1
     481      443      467 1
     482      444      445 1
     483      444      468 1
     484      444      469 1
     485      445      446 1
     486      445      470 1
     487      445      471 1
     488      446      447 1
     489      446      472 1
     490      446      473 1
     491      447      448 1
     492      447      474 1
     493      447      475 1
     494      448      449 1
     495      448      476 1
     496      448      477 1
     497      449      450 1
     498      449      478 1
     499      449      479 1
     500      450      451 1
     501      450      480 1
     502      450      481 1
     503      451      482 1
     504      451      483 1
     505      451      484 1
     506      485      486 1
     507      485      492 1
     508      485      508 1
     509      485      557 1
     510      486      487 1
     511      486      490 1
     512      487      488 1
     513      487      491 1
     514      488      489 1
     515      489      490 1
     516      490      496 1
     517      491      492 1
     518      491      495 1
     519      492      493 1
     520      493      494 1
     521      493      497 1
     522      494      495 1
     523      494      506 1
     524      498      499 1
     525      498      506 1
     526      499      500 1
     527      499      507 1
     528      500      501 1
     529      500      610 1
     530      501      502 1
     531      501      505 1
     532      502      503 1
     533      503      504 1
     534      504      505 1
     535      505      506 1
     536      508      509 1
     537      508      524 1
     538      508      525 1
     539      509      510 1
     540      509      526 1
     541      509      527 1
     542      510      511 1
     543      510      528 1
     544      510      529 1
     545      511      512 1
     546      511      530 1
     547      511      531 1
     548      512      513 1
     549      512      532 1
     550      512      533 1
     551      513      514 1
     552      513      534 1
     553      513      535 1
     554      514      515 1
     555      514      536 1
     556      514      537 1
     557      515      516 1
     558      515      538 1
     559      515      539 1
     560      516      517 1
     561      516      540 1
     562      516      541 1
     563      517      518 1
     564      517      542 1
     565      517      543 1
     566      518      519 1
     567      518      544 1
     568      518      545 1
     569      519      520 1
     570      519      546 1
     571      519      547 1
     572      520      521 1
     573      520      548 1
     574      520      549 1
     575      521      522 1
     576      521      550 1
     577      521      551 1
     578      522      523 1
     579      522      552 1
     580      522      553 1
     581      523      554 1
     582      523      555 1
     583      523      556 1
     584      557      558 1
     585      557      573 1
     586      557      574 1
     587      558      559 1
     588      558      575 1
     589      558      576 1
     590      559      560 1
     591      559      577 1
     592      559      578 1
     593      560      561 1
     594      560      579 1
     595      560      580 1
     596      561      562 1
     597      561      581 1
     598      561      582 1
     599      562      563 1
     600      562      583 1
     601      562      584 1
     602      563      564 1
     603      563      585 1
     604      563      586 1
     605      564      565 1
     606      564      587 1
     607      564      588 1
     608      565      566 1
     609      565      589 1
     610      565      590 1
     611      566      567 1
     612      566      591 1
     613      566      592 1
     614      567      568 1
     615      567      593 1
     616      567      594 1
     617      568      569 1
     618      568      595 1
     619      568      596 1
     620      569      570 1
     621      569      597 1
     622      569      598 1
     623      570      571 1
     624      570      599 1
     625      570      600 1
     626      571      572 1
     627      571      601 1
     628      571      602 1
     629      572      603 1
     630      572      604 1
     631      572      605 1
     632      606      607 1
     633      606      613 1
     634      606      629 1
     635      606      678 1
     636      607      608 1
     637      607      611 1
     638      608      609 1
     639      608      612 1
     640      609      610 1
     641      610      611 1
     642      611      617 1
     643      612      613 1
     644      612      616 1
     645      613      614 1
     646      614      615 1
     647      614      618 1
     648      615      616 1
     649      615      627 1
     650      619      620 1
     651      619      627 1
     652      620      621 1
     653      620      628 1
     654      621      622 1
     655      621      731 1
     656      622      623 1
     657      622      626 1
     658      623      624 1
     659      624      625 1
     660      625      626 1
     661      626      627 1
     662      629      630 1
     663      629      645 1
     664      629      646 1
     665      630      631 1
     666      630      647 1
     667      630      648 1
     668      631      632 1
     669      631      649 1
     670      631      650 1
     671      632      633 1
     672      632      651 1
     673      632      652 1
     674      633      634 1
     675      633      653 1
     676      633      654 1
     677      634      635 1
     678      634      655 1
     679      634      656 1
     680      635      636 1
     681      635      657 1
     682      635      658 1
     683      636      637 1
     684      636      659 1
     685      636      660 1
     686      637      638 1
     687      637      661 1
     688      637      662 1
     689      638      639 1
     690      638      663 1
     691      638      664 1
     692      639      640 1
     693      639      665 1
     694      639      666 1
     695      640      641 1
     696      640      667 1
     697      640      668 1
     698      641      642 1
     699      641      669 1
     700      641      670 1
     701      642      643 1
     702      642      671 1
     703      642      672 1
     704      643      644 1
     705      643      673 1
     706      643      674 1
     707      644      675 1
     708      644      676 1
     709      644      677 1
     710      678      679 1
     711      678      694 1
     712      678      695 1
     713      679      680 1
     714      679      696 1
     715      679      697 1
     716      680      681 1
     717      680      698 1
     718      680      699 1
     719      681      682 1
     720      681      700 1
     721      681      701 1
     722      682      683 1
     723      682      702 1
     724      682      703 1
     725      683      684 1
     726      683      704 1
     727      683      705 1
     728      684      685 1
     729      684      706 1
     730      684      707 1
     731      685      686 1
     732      685      708 1
     733      685      709 1
     734      686      687 1
     735      686      710 1
     736      686      711 1
     737      687      688 1
     738      687      712 1
     739      687      713 1
     740      688      689 1
     741      688      714 1
     742      688      715 1
     743      689      690 1
     744      689      716 1
     745      689      717 1
     746      690      691 1
     747      690      718 1
     748      690      719 1
     749      691      692 1
     750      691      720 1
     751      691      721 1
     752      692      693 1
     753      692      722 1
     754      692      723 1
     755      693      724 1
     756      693      725 1
     757      693      726 1
     758      727      728 1
     759      727      734 1
     760      727      750 1
     761      727      799 1
     762      728      729 1
     763      728      732 1
     764      729      730 1
     765      729      733 1
     766      730      731 1
     767      731      732 1
     768      732      738 1
     769      733      734 1
     770      733      737 1
     771      734      735 1
     772      735      736 1
     773      735      739 1
     774      736      737 1
     775      736      748 1
     776      740      741 1
     777      740      748 1
     778      741      742 1
     779      741      749 1
     780      742      743 1
     781      742      852 1
     782      743      744 1
     783      743      747 1
     784      744      745 1
     785      745      746 1
     786      746      747 1
     787      747      748 1
     788      750      751 1
     789      750      766 1
     790      750      767 1
     791      751      752 1
     792      751      768 1
     793      751      769 1
     794      752      753 1
     795      752      770 1
     796      752      771 1
     797      753      754 1
     798      753      772 1
     799      753      773 1
     800      754      755 1
     801      754      774 1
     802      754      775 1
     803      755      756 1
     804      755      776 1
     805      755      777 1
     806      756      757 1
     807      756      778 1
     808      756      779 1
     809      757      758 1
     810      757      780 1
     811      757      781 1
     812      758      759 1
     813      758      782 1
     814      758      783 1
     815      759      760 1
     816      759      784 1
     817      759      785 1
     818      760      761 1
     819      760      786 1
     820      760      787 1
     821      761      762 1
     822      761      788 1
     823      761      789 1
     824      762      763 1
     825      762      790 1
     826      762      791 1
     827      763      764 1
     828      763      792 1
     829      763      793 1
     830      764      765 1
     831      764      794 1
     832      764      795 1
     833      765      796 1
     834      765      797 1
     835      765      798 1
     836      799      800 1
     837      799      815 1
     838      799      816 1
     839      800      801 1
     840      800      817 1
     841      800      818 1
     842      801      802 1
     843      801      819 1
     844      801      820 1
     845      802      803 1
     846      802      821 1
     847      802      822 1
     848      803      804 1
     849      803      823 1
     850      803      824 1
     851      804      805 1
     852      804      825 1
     853      804      826 1
     854      805      806 1
     855      805      827 1
     856      805      828 1
     857      806      807 1
     858      806      829 1
     859      806      830 1
     860      807      808 1
     861      807      831 1
     862      807      832 1
     863      808      809 1
     864      808      833 1
     865      808      834 1
     866      809      810 1
     867      809      835 1
     868      809      836 1
     869      810      811 1
     870      810      837 1
     871      810      838 1
     872      811      812 1
     873      811      839 1
     874      811      840 1
     875      812      813 1
     876      812      841 1
     877      812      842 1
     878      813      814 1
     879      813      843 1
     880      813      844 1
     881      814      845 1
     882      814      846 1
     883      814      847 1
     884      848      849 1
     885      848      855 1
     886      848      871 1
     887      848      920 1
     888      849      850 1
     889      849      853 1
     890      850      851 1
     891      850      854 1
     892      851      852 1
     893      852      853 1
     894      853      859 1
     895      854      855 1
     896      854      858 1
     897      855      856 1
     898      856      857 1
     899      856      860 1
     900      857      858 1
     901      857      869 1
     902      861      862 1
     903      861      869 1
     904      862      863 1
     905      862      870 1
     906      863      864 1
     907      863      973 1
     908      864      865 1
     909      864      868 1
     910      865      866 1
     911      866      867 1
     912      867      868 1
     913      868      869 1
     914      871      872 1
     915      871      887 1
     916      871      888 1
     917      872      873 1
     918      872      889 1
     919      872      890 1
     920      873      874 1
     921      873      891 1
     922      873      892 1
     923      874      875 1
     924      874      893 1
     925      874      894 1
     926      875      876 1
     927      875      895 1
     928      875      896 1
     929      876      877 1
     930      876      897 1
     931      876      898 1
     932      877      878 1
     933      877      899 1
     934      877      900 1
     935      878      879 1
     936      878      901 1
     937      878      902 1
     938      879      880 1
     939      879      903 1
     940      879      904 1
     941      880      881 1
     942      880      905 1
     943      880      906 1
     944      881      882 1
     945      881      907 1
     946      881      908 1
     947      882      883 1
     948      882      909 1
     949      882      910 1
     950      883      884 1
     951      883      911 1
     952      883      912 1
     953      884      885 1
     954      884      913 1
     955      884      914 1
     956      885      886 1
     957      885      915 1
     958      885      916 1
     959      886      917 1
     960      886      918 1
     961      886      919 1
     962      920      921 1
     963      920      936 1
     964      920      937 1
     965      921      922 1
     966      921      938 1
     967      921      939 1
     968      922      923 1
     969      922      940 1
     970      922      941 1
     971      923      924 1
     972      923      942 1
     973      923      943 1
     974      924      925 1
     975      924      944 1
     976      924      945 1
     977      925      926 1
     978      925      946 1
     979      925      947 1
     980      926      927 1
     981      926      948 1
     982      926      949 1
     983      927      928 1
     984      927      950 1
     985      927      951 1
     986      928      929 1
     987      928      952 1
     988      928      953 1
     989      929      930 1
     990      929      954 1
     991      929      955 1
     992      930      931 1
     993      930      956 1
     994      930      957 1
     995      931      932 1
     996      931      958 1
     997      931      959 1
     998      932      933 1
     999      932      960 1
    1000      932      961 1
    1001      933      934 1
    1002      933      962 1
    1003      933      963 1
    1004      934      935 1
    1005      934      964 1
    1006      934      965 1
    1007      935      966 1
    1008      935      967 1
    1009      935      968 1
    1010      969      970 1
    1011      969      976 1
    1012      969      992 1
    1013      969     1041 1
    1014      970      971 1
    1015      970      974 1
    1016      971      972 1
    1017      971      975 1
    1018      972      973 1
    1019      973      974 1
    1020      974      980 1
    1021      975      976 1
    1022      975      979 1
    1023      976      977 1
    1024      977      978 1
    1025      977      981 1
    1026      978      979 1
    1027      978      990 1
    1028      982      983 1
    1029      982      990 1
    1030      983      984 1
    1031      983      991 1
    1032      984      985 1
    1033      984     1094 1
    1034      985      986 1
    1035      985      989 1
    1036      986      987 1
    1037      987      988 1
    1038      988      989 1
    1039      989      990 1
    1040      992      993 1
    1041      992     1008 1
    1042      992     1009 1
    1043      993      994 1
    1044      993     1010 1
    1045      993     1011 1
    1046      994      995 1
    1047      994     1012 1
    1048      994     1013 1
    1049      995      996 1
    1050      995     1014 1
    1051      995     1015 1
    1052      996      997 1
    1053      996     1016 1
    1054      996     1017 1
    1055      997      998 1
    1056      997     1018 1
    1057      997     1019 1
    1058      998      999 1
    1059      998     1020 1
    1060      998     1021 1
    1061      999     1000 1
    1062      999     1022 1
    1063      999     1023 1
    1064     1000     1001 1
    1065     1000     1024 1
    1066     1000     1025 1
    1067     1001     1002 1
    1068     1001     1026 1
    1069     1001     1027 1
    1070     1002     1003 1
    1071     1002     1028 1
    1072     1002     1029 1
    1073     1003     1004 1
    1074     1003     1030 1
    1075     1003     1031 1
    1076     1004     1005 1
    1077     1004     1032 1
    1078     1004     1033 1
    1079     1005     1006 1
    1080     1005     1034 1
    1081     1005     1035 1
    1082     1006     1007 1
    1083     1006     1036 1
    1084     1006     1037 1
    1085     1007     1038 1
    1086     1007     1039 1
    1087     1007     1040 1
    1088     1041     1042 1
    1089     1041     1057 1
    1090     1041     1058 1
    1091     1042     1043 1
    1092     1042     1059 1
    1093     1042     1060 1
    1094     1043     1044 1
    1095     1043     1061 1
    1096     1043     1062 1
    1097     1044     1045 1
    1098     1044     1063 1
    1099     1044     1064 1
    1100     1045     1046 1
    1101     1045     1065 1
    1102     1045     1066 1
    1103     1046     1047 1
    1104     1046     1067 1
    1105     1046     1068 1
    1106     1047     1048 1
    1107     1047     1069 1
    1108     1047     1070 1
    1109     1048     1049 1
    1110     1048     1071 1
    1111     1048     1072 1
    1112     1049     1050 1
    1113     1049     1073 1
    1114     1049     1074 1
    1115     1050     1051 1
    1116     1050     1075 1
    1117     1050     1076 1
    1118     1051     1052 1
    1119     1051     1077 1
    1120     1051     1078 1
    1121     1052     1053 1
    1122     1052     1079 1
    1123     1052     1080 1
    1124     1053     1054 1
    1125     1053     1081 1
    1126     1053     1082 1
    1127     1054     1055 1
    1128     1054     1083 1
    1129     1054     1084 1
    1130     1055     1056 1
    1131     1055     1085 1
    1132     1055     1086 1
    1133     1056     1087 1
    1134     1056     1088 1
    1135     1056     1089 1
    1136     1090     1091 1
    1137     1090     1097 1
    1138     1090     1113 1
    1139     1090     1162 1
    1140     1091     1092 1
    1141     1091     1095 1
    1142     1092     1093 1
    1143     1092     1096 1
    1144     1093     1094 1
    1145     1094     1095 1
    1146     1095     1101 1
    1147     1096     1097 1
    1148     1096     1100 1
    1149     1097     1098 1
    1150     1098     1099 1
    1151     1098     1102 1
    1152     1099     1100 1
    1153     1099     1111 1
    1154     1103     1104 1
    1155     1103     1111 1
    1156     1104     1105 1
    1157     1104     1112 1
    1158     1105     1106 1
    1159     1105     1215 1
    1160     1106     1107 1
    1161     1106     1110 1
    1162     1107     1108 1
    1163     1108     1109 1
    1164     1109     1110 1
    1165     1110     1111 1
    1166     1113     1114 1
    1167     1113     1129 1
    1168     1113     1130 1
    1169     1114     1115 1
    1170     1114     1131 1
    1171     1114     1132 1
    1172     1115     1116 1
    1173     1115     1133 1
    1174     1115     1134 1
    1175     1116     1117 1
    1176     1116     1135 1
    1177     1116     1136 1
    1178     1117     1118 1
    1179     1117     1137 1
    1180     1117     1138 1
    1181     1118     1119 1
    1182     1118     1139 1
    1183     1118     1140 1
    1184     1119     1120 1
    1185     1119     1141 1
    1186     1119     1142 1
    1187     1120     1121 1
    1188     1120     1143 1
    1189     1120     1144 1
    1190     1121     1122 1
    1191     1121     1145 1
    1192     1121     1146 1
    1193     1122     1123 1
    1194     1122     1147 1
    1195     1122     1148 1
    1196     1123     1124 1
    1197     1123     1149 1
    1198     1123     1150 1
    1199     1124     1125 1
    1200     1124     1151 1
    1201     1124     1152 1
    1202     1125     1126 1
    1203     1125     1153 1
    1204     1125     1154 1
    1205     1126     1127 1
    1206     1126     1155 1
    1207     1126     1156 1
    1208     1127     1128 1
    1209     1127     1157 1
    1210     1127     1158 1
    1211     1128     1159 1
    1212     1128     1160 1
    1213     1128     1161 1
    1214     1162     1163 1
    1215     1162     1178 1
    1216     1162     1179 1
    1217     1163     1164 1
    1218     1163     1180 1
    1219     1163     1181 1
    1220     1164     1165 1
    1221     1164     1182 1
    1222     1164     1183 1
    1223     1165     1166 1
    1224     1165     1184 1
    1225     1165     1185 1
    1226     1166     1167 1
    1227     1166     1186 1
    1228     1166     1187 1
    1229     1167     1168 1
    1230     1167     1188 1
    1231     1167     1189 1
    1232     1168     1169 1
    1233     1168     1190 1
    1234     1168     1191 1
    1235     1169     1170 1
    1236     1169     1192 1
    1237     1169     1193 1
    1238     1170     1171 1
    1239     1170     1194 1
    1240     1170     1195 1
    1241     1171     1172 1
    1242     1171     1196 1
    1243     1171     1197 1
    1244     1172     1173 1
    1245     1172     1198 1
    1246     1172     1199 1
    1247     1173     1174 1
    1248     1173     1200 1
    1249     1173     1201 1
    1250     1174     1175 1
    1251     1174     1202 1
    1252     1174     1203 1
    1253     1175     1176 1
    1254     1175     1204 1
    1255     1175     1205 1
    1256     1176     1177 1
    1257     1176     1206 1
    1258     1176     1207 1
    1259     1177     1208 1
    1260     1177     1209 1
    1261     1177     1210 1
    1262     1211     1212 1
    1263     1211     1218 1
    1264     1211     1234 1
    1265     1211     1283 1
    1266     1212     1213 1
    1267     1212     1216 1
    1268     1213     1214 1
    1269     1213     1217 1
    1270     1214     1215 1
    1271     1215     1216 1
    1272     1216     1222 1
    1273     1217     1218 1
    1274     1217     1221 1
    1275     1218     1219 1
    1276     1219     1220 1
    1277     1219     1223 1
    1278     1220     1221 1
    1279     1220     1232 1
    1280     1224     1225 1
    1281     1224     1232 1
    1282     1225     1226 1
    1283     1225     1233 1
    1284     1226     1227 1
    1285     1226     1336 1
    1286     1227     1228 1
    1287     1227     1231 1
    1288     1228     1229 1
    1289     1229     1230 1
    1290     1230     1231 1
    1291     1231     1232 1
    1292     1234     1235 1
    1293     1234     1250 1
    1294     1234     1251 1
    1295     1235     1236 1
    1296     1235     1252 1
    1297     1235     1253 1
    1298     1236     1237 1
    1299     1236     1254 1
    1300     1236     1255 1
    1301     1237     1238 1
    1302     1237     1256 1
    1303     1237     1257 1
    1304     1238     1239 1
    1305     1238     1258 1
    1306     1238     1259 1
    1307     1239     1240 1
    1308     1239     1260 1
    1309     1239     1261 1
    1310     1240     1241 1
    1311     1240     1262 1
    1312     1240     1263 1
    1313     1241     1242 1
    1314     1241     1264 1
    1315     1241     1265 1
    1316     1242     1243 1
    1317     1242     1266 1
    1318     1242     1267 1
    1319     1243     1244 1
    1320     1243     1268 1
    1321     1243     1269 1
    1322     1244     1245 1
    1323     1244     1270 1
    1324     1244     1271 1
    1325     1245     1246 1
    1326     1245     1272 1
    1327     1245     1273 1
    1328     1246     1247 1
    1329     1246     1274 1
    1330     1246     1275 1
    1331     1247     1248 1
    1332     1247     1276 1
    1333     1247     1277 1
    1334     1248     1249 1
    1335     1248     1278 1
    1336     1248     1279 1
    1337     1249     1280 1
    1338     1249     1281 1
    1339     1249     1282 1
    1340     1283     1284 1
    1341     1283     1299 1
    1342     1283     1300 1
    1343     1284     1285 1
    1344     1284     1301 1
    1345     1284     1302 1
    1346     1285     1286 1
    1347     1285     1303 1
    1348     1285     1304 1
    1349     1286     1287 1
    1350     1286     1305 1
    1351     1286     1306 1
    1352     1287     1288 1
    1353     1287     1307 1
    1354     1287     1308 1
    1355     1288     1289 1
    1356     1288     1309 1
    1357     1288     1310 1
    1358     1289     1290 1
    1359     1289     1311 1
    1360     1289     1312 1
    1361     1290     1291 1
    1362     1290     1313 1
    1363     1290     1314 1
    1364     1291     1292 1
    1365     1291     1315 1
    1366     1291     1316 1
    1367     1292     1293 1
    1368     1292     1317 1
    1369     1292     1318 1
    1370     1293     1294 1
    1371     1293     1319 1
    1372     1293     1320 1
    1373     1294     1295 1
    1374     1294     1321 1
    1375     1294     1322 1
    1376     1295     1296 1
    1377     1295     1323 1
    1378     1295     1324 1
    1379     1296     1297 1
    1380     1296     1325 1
    1381     1296     1326 1
    1382     1297     1298 1
    1383     1297     1327 1
    1384     1297     1328 1
    1385     1298     1329 1
    1386     1298     1330 1
    1387     1298     1331 1
    1388     1332     1333 1
    1389     1332     1339 1
    1390     1332     1355 1
    1391     1332     1404 1
    1392     1333     1334 1
    1393     1333     1337 1
    1394     1334     1335 1
    1395     1334     1338 1
    1396     1335     1336 1
    1397     1336     1337 1
    1398     1337     1343 1
    1399     1338     1339 1
    1400     1338     1342 1
    1401     1339     1340 1
    1402     1340     1341 1
    1403     1340     1344 1
    1404     1341     1342 1
    1405     1341     1353 1
    1406     1345     1346 1
    1407     1345     1353 1
    1408     1346     1347 1
    1409     1346     1354 1
    1410     1347     1348 1
    1411     1347     1457 1
    1412     1348     1349 1
    1413     1348     1352 1
    1414     1349     1350 1
    1415     1350     1351 1
    1416     1351     1352 1
    1417     1352     1353 1
    1418     1355     1356 1
    1419     1355     1371 1
    1420     1355     1372 1
    1421     1356     1357 1
    1422     1356     1373 1
    1423     1356     1374 1
    1424     1357     1358 1
    1425     1357     1375 1
    1426     1357     1376 1
    1427     1358     1359 1
    1428     1358     1377 1
    1429     1358     1378 1
    1430     1359     1360 1
    1431     1359     1379 1
    1432     1359     1380 1
    1433     1360     1361 1
    1434     1360     1381 1
    1435     1360     1382 1
    1436     1361     1362 1
    1437     1361     1383 1
    1438     1361     1384 1
    1439     1362     1363 1
    1440     1362     1385 1
    1441     1362     1386 1
    1442     1363     1364 1
    1443     1363     1387 1
    1444     1363     1388 1
    1445     1364     1365 1
    1446     1364     1389 1
    1447     1364     1390 1
    1448     1365     1366 1
    1449     1365     1391 1
    1450     1365     1392 1
    1451     1366     1367 1
    1452     1366     1393 1
    1453     1366     1394 1
    1454     1367     1368 1
    1455     1367     1395 1
    1456     1367     1396 1
    1457     1368     1369 1
    1458     1368     1397 1
    1459     1368     1398 1
    1460     1369     1370 1
    1461     1369     1399 1
    1462     1369     1400 1
    1463     1370     1401 1
    1464     1370     1402 1
    1465     1370     1403 1
    1466     1404     1405 1
    1467     1404     1420 1
    1468     1404     1421 1
    1469     1405     1406 1
    1470     1405     1422 1
    1471     1405     1423 1
    1472     1406     1407 1
    1473     1406     1424 1
    1474     1406     1425 1
    1475     1407     1408 1
    1476     1407     1426 1
    1477     1407     1427 1
    1478     1408     1409 1
    1479     1408     1428 1
    1480     1408     1429 1
    1481     1409     1410 1
    1482     1409     1430 1
    1483     1409     1431 1
    1484     1410     1411 1
    1485     1410     1432 1
    1486     1410     1433 1
    1487     1411     1412 1
    1488     1411     1434 1
    1489     1411     1435 1
    1490     1412     1413 1
    1491     1412     1436 1
    1492     1412     1437 1
    1493     1413     1414 1
    1494     1413     1438 1
    1495     1413     1439 1
    1496     1414     1415 1
    1497     1414     1440 1
    1498     1414     1441 1
    1499     1415     1416 1
    1500     1415     1442 1
    1501     1415     1443 1
    1502     1416     1417 1
    1503     1416     1444 1
    1504     1416     1445 1
    1505     1417     1418 1
    1506     1417     1446 1
    1507     1417     1447 1
    1508     1418     1419 1
    1509     1418     1448 1
    1510     1418     1449 1
    1511     1419     1450 1
    1512     1419     1451 1
    1513     1419     1452 1
    1514     1453     1454 1
    1515     1453     1460 1
    1516     1453     1476 1
    1517     1453     1525 1
    1518     1454     1455 1
    1519     1454     1458 1
    1520     1455     1456 1
    1521     1455     1459 1
    1522     1456     1457 1
    1523     1457     1458 1
    1524     1458     1464 1
    1525     1459     1460 1
    1526     1459     1463 1
    1527     1460     1461 1
    1528     1461     1462 1
    1529     1461     1465 1
    1530     1462     1463 1
    1531     1462     1474 1
    1532     1466     1467 1
    1533     1466     1474 1
    1534     1467     1468 1
    1535     1467     1475 1
    1536     1468     1469 1
    1537     1468     1578 1
    1538     1469     1470 1
    1539     1469     1473 1
    1540     1470     1471 1
    1541     1471     1472 1
    1542     1472     1473 1
    1543     1473     1474 1
    1544     1476     1477 1
    1545     1476     1492 1
    1546     1476     1493 1
    1547     1477     1478 1
    1548     1477     1494 1
    1549     1477     1495 1
    1550     1478     1479 1
    1551     1478     1496 1
    1552     1478     1497 1
    1553     1479     1480 1
    1554     1479     1498 1
    1555     1479     1499 1
    1556     1480     1481 1
    1557     1480     1500 1
    1558     1480     1501 1
    1559     1481     1482 1
    1560     1481     1502 1
    1561     1481     1503 1
    1562     1482     1483 1
    1563     1482     1504 1
    1564     1482     1505 1
    1565     1483     1484 1
    1566     1483     1506 1
    1567     1483     1507 1
    1568     1484     1485 1
    1569     1484     1508 1
    1570     1484     1509 1
    1571     1485     1486 1
    1572     1485     1510 1
    1573     1485     1511 1
    1574     1486     1487 1
    1575     1486     1512 1
    1576     1486     1513 1
    1577     1487     1488 1
    1578     1487     1514 1
    1579     1487     1515 1
    1580     1488     1489 1
    1581     1488     1516 1
    1582     1488     1517 1
    1583     1489     1490 1
    1584     1489     1518 1
    1585     1489     1519 1
    1586     1490     1491 1
    1587     1490     1520 1
    1588     1490     1521 1
    1589     1491     1522 1
    1590     1491     1523 1
    1591     1491     1524 1
    1592     1525     1526 1
    1593     1525     1541 1
    1594     1525     1542 1
    1595     1526     1527 1
    1596     1526     1543 1
    1597     1526     1544 1
    1598     1527     1528 1
    1599     1527     1545 1
    1600     1527     1546 1
    1601     1528     1529 1
    1602     1528     1547 1
    1603     1528     1548 1
    1604     1529     1530 1
    1605     1529     1549 1
    1606     1529     1550 1
    1607     1530     1531 1
    1608     1530     1551 1
    1609     1530     1552 1
    1610     1531     1532 1
    1611     1531     1553 1
    1612     1531     1554 1
    1613     1532     1533 1
    1614     1532     1555 1
    1615     1532     1556 1
    1616     1533     1534 1
    1617     1533     1557 1
    1618     1533     1558 1
    1619     1534     1535 1
    1620     1534     1559 1
    1621     1534     1560 1
    1622     1535     1536 1
    1623     1535     1561 1
    1624     1535     1562 1
    1625     1536     1537 1
    1626     1536     1563 1
    1627     1536     1564 1
    1628     1537     1538 1
    1629     1537     1565 1
    1630     1537     1566 1
    1631     1538     1539 1
    1632     1538     1567 1
    1633     1538     1568 1
    1634     1539     1540 1
    1635     1539     1569 1
    1636     1539     1570 1
    1637     1540     1571 1
    1638     1540     1572 1
    1639     1540     1573 1
    1640     1574     1575 1
    1641     1574     1581 1
    1642     1574     1597 1
    1643     1574     1646 1
    1644     1575     1576 1
    1645     1575     1579 1
    1646     1576     1577 1
    1647     1576     1580 1
    1648     1577     1578 1
    1649     1578     1579 1
    1650     1579     1585 1
    1651     1580     1581 1
    1652     1580     1584 1
    1653     1581     1582 1
    1654     1582     1583 1
    1655     1582     1586 1
    1656     1583     1584 1
    1657     1583     1595 1
    1658     1587     1588 1
    1659     1587     1595 1
    1660     1588     1589 1
    1661     1588     1596 1
    1662     1589     1590 1
    1663     1589     1699 1
    1664     1590     1591 1
    1665     1590     1594 1
    1666     1591     1592 1
    1667     1592     1593 1
    1668     1593     1594 1
    1669     1594     1595 1
    1670     1597     1598 1
    1671     1597     1613 1
    1672     1597     1614 1
    1673     1598     1599 1
    1674     1598     1615 1
    1675     1598     1616 1
    1676     1599     1600 1
    1677     1599     1617 1
    1678     1599     1618 1
    1679     1600     1601 1
    1680     1600     1619 1
    1681     1600     1620 1
    1682     1601     1602 1
    1683     1601     1621 1
    1684     1601     1622 1
    1685     1602     1603 1
    1686     1602     1623 1
    1687     1602     1624 1
    1688     1603     1604 1
    1689     1603     1625 1
    1690     1603     1626 1
    1691     1604     1605 1
    1692     1604     1627 1
    1693     1604     1628 1
    1694     1605     1606 1
    1695     1605     1629 1
    1696     1605     1630 1
    1697     1606     1607 1
    1698     1606     1631 1
    1699     1606     1632 1
    1700     1607     1608 1
    1701     1607     1633 1
    1702     1607     1634 1
    1703     1608     1609 1
    1704     1608     1635 1
    1705     1608     1636 1
    1706     1609     1610 1
    1707     1609     1637 1
    1708     1609     1638 1
    1709     1610     1611 1
    1710     1610     1639 1
    1711     1610     1640 1
    1712     1611     1612 1
    1713     1611     1641 1
    1714     1611     1642 1
    1715     1612     1643 1
    1716     1612     1644 1
    1717     1612     1645 1
    1718     1646     1647 1
    1719     1646     1662 1
    1720     1646     1663 1
    1721     1647     1648 1
    1722     1647     1664 1
    1723     1647     1665 1
    1724     1648     1649 1
    1725     1648     1666 1
    1726     1648     1667 1
    1727     1649     1650 1
    1728     1649     1668 1
    1729     1649     1669 1
    1730     1650     1651 1
    1731     1650     1670 1
    1732     1650     1671 1
    1733     1651     1652 1
    1734     1651     1672 1
    1735     1651     1673 1
    1736     1652     1653 1
    1737     1652     1674 1
    1738     1652     1675 1
    1739     1653     1654 1
    1740     1653     1676 1
    1741     1653     1677 1
    1742     1654     1655 1
    1743     1654     1678 1
    1744     1654     1679 1
    1745     1655     1656 1
    1746     1655     1680 1
    1747     1655     1681 1
    1748     1656     1657 1
    1749     1656     1682 1
    1750     1656     1683 1
    1751     1657     1658 1
    1752     1657     1684 1
    1753     1657     1685 1
    1754     1658     1659 1
    1755     1658     1686 1
    1756     1658     1687 1
    1757     1659     1660 1
    1758     1659     1688 1
    1759     1659     1689 1
    1760     1660     1661 1
    1761     1660     1690 1
    1762     1660     1691 1
    1763     1661     1692 1
    1764     1661     1693 1
    1765     1661     1694 1
    1766     1695     1696 1
    1767     1695     1702 1
    1768     1695     1718 1
    1769     1695     1767 1
    1770     1696     1697 1
    1771     1696     1700 1
    1772     1697     1698 1
    1773     1697     1701 1
    1774     1698     1699 1
    1775     1699     1700 1
    1776     1700     1706 1
    1777     1701     1702 1
    1778     1701     1705 1
    1779     1702     1703 1
    1780     1703     1704 1
    1781     1703     1707 1
    1782     1704     1705 1
    1783     1704     1716 1
    1784     1708     1709 1
    1785     1708     1716 1
    1786     1709     1710 1
    1787     1709     1717 1
    1788     1710     1711 1
    1789     1710     1820 1
    1790     1711     1712 1
    1791     1711     1715 1
    1792     1712     1713 1
    1793     1713     1714 1
    1794     1714     1715 1
    1795     1715     1716 1
    1796     1718     1719 1
    1797     1718     1734 1
    1798     1718     1735 1
    1799     1719     1720 1
    1800     1719     1736 1
    1801     1719     1737 1
    1802     1720     1721 1
    1803     1720     1738 1
    1804     1720     1739 1
    1805     1721     1722 1
    1806     1721     1740 1
    1807     1721     1741 1
    1808     1722     1723 1
    1809     1722     1742 1
    1810     1722     1743 1
    1811     1723     1724 1
    1812     1723     1744 1
    1813     1723     1745 1
    1814     1724     1725 1
    1815     1724     1746 1
    1816     1724     1747 1
    1817     1725     1726 1
    1818     1725     1748 1
    1819     1725     1749 1
    1820     1726     1727 1
    1821     1726     1750 1
    1822     1726     1751 1
    1823     1727     1728 1
    1824     1727     1752 1
    1825     1727     1753 1
    1826     1728     1729 1
    1827     1728     1754 1
    1828     1728     1755 1
    1829     1729     1730 1
    1830     1729     1756 1
    1831     1729     1757 1
    1832     1730     1731 1
    1833     1730     1758 1
    1834     1730     1759 1
    1835     1731     1732 1
    1836     1731     1760 1
    1837     1731     1761 1
    1838     1732     1733 1
    1839     1732     1762 1
    1840     1732     1763 1
    1841     1733     1764 1
    1842     1733     1765 1
    1843     1733     1766 1
    1844     1767     1768 1
    1845     1767     1783 1
    1846     1767     1784 1
    1847     1768     1769 1
    1848     1768     1785 1
    1849     1768     1786 1
    1850     1769     1770 1
    1851     1769     1787 1
    1852     1769     1788 1
    1853     1770     1771 1
    1854     1770     1789 1
    1855     1770     1790 1
    1856     1771     1772 1
    1857     1771     1791 1
    1858     1771     1792 1
    1859     1772     1773 1
    1860     1772     1793 1
    1861     1772     1794 1
    1862     1773     1774 1
    1863     1773     1795 1
    1864     1773     1796 1
    1865     1774     1775 1
    1866     1774     1797 1
    1867     1774     1798 1
    1868     1775     1776 1
    1869     1775     1799 1
    1870     1775     1800 1
    1871     1776     1777 1
    1872     1776     1801 1
    1873     1776     1802 1
    1874     1777     1778 1
    1875     1777     1803 1
    1876     1777     1804 1
    1877     1778     1779 1
    1878     1778     1805 1
    1879     1778     1806 1
    1880     1779     1780 1
    1881     1779     1807 1
    1882     1779     1808 1
    1883     1780     1781 1
    1884     1780     1809 1
    1885     1780     1810 1
    1886     1781     1782 1
    1887     1781     1811 1
    1888     1781     1812 1
    1889     1782     1813 1
    1890     1782     1814 1
    1891     1782     1815 1
    1892     1816     1817 1
    1893     1816     1823 1
    1894     1816     1839 1
    1895     1816     1888 1
    1896     1817     1818 1
    1897     1817     1821 1
    1898     1818     1819 1
    1899     1818     1822 1
    1900     1819     1820 1
    1901     1820     1821 1
    1902     1821     1827 1
    1903     1822     1823 1
    1904     1822     1826 1
    1905     1823     1824 1
    1906     1824     1825 1
    1907     1824     1828 1
    1908     1825     1826 1
    1909     1825     1837 1
    1910     1829     1830 1
    1911     1829     1837 1
    1912     1830     1831 1
    1913     1830     1838 1
    1914     1831     1832 1
    1915     1831     1941 1
    1916     1832     1833 1
    1917     1832     1836 1
    1918     1833     1834 1
    1919     1834     1835 1
    1920     1835     1836 1
    1921     1836     1837 1
    1922     1839     1840 1
    1923     1839     1855 1
    1924     1839     1856 1
    1925     1840     1841 1
    1926     1840     1857 1
    1927     1840     1858 1
    1928     1841     1842 1
    1929     1841     1859 1
    1930     1841     1860 1
    1931     1842     1843 1
    1932     1842     1861 1
    1933     1842     1862 1
    1934     1843     1844 1
    1935     1843     1863 1
    1936     1843     1864 1
    1937     1844     1845 1
    1938     1844     1865 1
    1939     1844     1866 1
    1940     1845     1846 1
    1941     1845     1867 1
    1942     1845     1868 1
    1943     1846     1847 1
    1944     1846     1869 1
    1945     1846     1870 1
    1946     1847     1848 1
    1947     1847     1871 1
    1948     1847     1872 1
    1949     1848     1849 1
    1950     1848     1873 1
    1951     1848     1874 1
    1952     1849     1850 1
    1953     1849     1875 1
    1954     1849     1876 1
    1955     1850     1851 1
    1956     1850     1877 1
    1957     1850     1878 1
    1958     1851     1852 1
    1959     1851     1879 1
    1960     1851     1880 1
    1961     1852     1853 1
    1962     1852     1881 1
    1963     1852     1882 1
    1964     1853     1854 1
    1965     1853     1883 1
    1966     1853     1884 1
    1967     1854     1885 1
    1968     1854     1886 1
    1969     1854     1887 1
    1970     1888     1889 1
    1971     1888     1904 1
    1972     1888     1905 1
    1973     1889     1890 1
    1974     1889     1906 1
    1975     1889     1907 1
    1976     1890     1891 1
    1977     1890     1908 1
    1978     1890     1909 1
    1979     1891     1892 1
    1980     1891     1910 1
    1981     1891     1911 1
    1982     1892     1893 1
    1983     1892     1912 1
    1984     1892     1913 1
    1985     1893     1894 1
    1986     1893     1914 1
    1987     1893     1915 1
    1988     1894     1895 1
    1989     1894     1916 1
    1990     1894     1917 1
    1991     1895     1896 1
    1992     1895     1918 1
    1993     1895     1919 1
    1994     1896     1897 1
    1995     1896     1920 1
    1996     1896     1921 1
    1997     1897     1898 1
    1998     1897     1922 1
    1999     1897     1923 1
    2000     1898     1899 1
    2001     1898     1924 1
    2002     1898     1925 1
    2003     1899     1900 1
    2004     1899     1926 1
    2005     1899     1927 1
    2006     1900     1901 1
    2007     1900     1928 1
    2008     1900     1929 1
    2009     1901     1902 1
    2010     1901     1930 1
    2011     1901     1931 1
    2012     1902     1903 1
    2013     1902     1932 1
    2014     1902     1933 1
    2015     1903     1934 1
    2016     1903     1935 1
    2017     1903     1936 1
    2018     1937     1938 1
    2019     1937     1944 1
    2020     1937     1960 1
    2021     1937     2009 1
    2022     1938     1939 1
    2023     1938     1942 1
    2024     1939     1940 1
    2025     1939     1943 1
    2026     1940     1941 1
    2027     1941     1942 1
    2028     1942     1948 1
    2029     1943     1944 1
    2030     1943     1947 1
    2031     1944     1945 1
    2032     1945     1946 1
    2033     1945     1949 1
    2034     1946     1947 1
    2035     1946     1958 1
    2036     1950     1951 1
    2037     1950     1958 1
    2038     1951     1952 1
    2039     1951     1959 1
    2040     1952     1953 1
    2041     1952     2062 1
    2042     1953     1954 1
    2043     1953     1957 1
    2044     1954     1955 1
    2045     1955     1956 1
    2046     1956     1957 1
    2047     1957     1958 1
    2048     1960     1961 1
    2049     1960     1976 1
    2050     1960     1977 1
    2051     1961     1962 1
    2052     1961     1978 1
    2053     1961     1979 1
    2054     1962     1963 1
    2055     1962     1980 1
    2056     1962     1981 1
    2057     1963     1964 1
    2058     1963     1982 1
    2059     1963     1983 1
    2060     1964     1965 1
    2061     1964     1984 1
    2062     1964     1985 1
    2063     1965     1966 1
    2064     1965     1986 1
    2065     1965     1987 1
    2066     1966     1967 1
    2067     1966     1988 1
    2068     1966     1989 1
    2069     1967     1968 1
    2070     1967     1990 1
    2071     1967     1991 1
    2072     1968     1969 1
    2073     1968     1992 1
    2074     1968     1993 1
    2075     1969     1970 1
    2076     1969     1994 1
    2077     1969     1995 1
    2078     1970     1971 1
    2079     1970     1996 1
    2080     1970     1997 1
    2081     1971     1972 1
    2082     1971     1998 1
    2083     1971     1999 1
    2084     1972     1973 1
    2085     1972     2000 1
    2086     1972     2001 1
    2087     1973     1974 1
    2088     1973     2002 1
    2089     1973     2003 1
    2090     1974     1975 1
    2091     1974     2004 1
    2092     1974     2005 1
    2093     1975     2006 1
    2094     1975     2007 1
    2095     1975     2008 1
    2096     2009     2010 1
    2097     2009     2025 1
    2098     2009     2026 1
    2099     2010     2011 1
    2100     2010     2027 1
    2101     2010     2028 1
    2102     2011     2012 1
    2103     2011     2029 1
    2104     2011     2030 1
    2105     2012     2013 1
    2106     2012     2031 1
    2107     2012     2032 1
    2108     2013     2014 1
    2109     2013     2033 1
    2110     2013     2034 1
    2111     2014     2015 1
    2112     2014     2035 1
    2113     2014     2036 1
    2114     2015     2016 1
    2115     2015     2037 1
    2116     2015     2038 1
    2117     2016     2017 1
    2118     2016     2039 1
    2119     2016     2040 1
    2120     2017     2018 1
    2121     2017     2041 1
    2122     2017     2042 1
    2123     2018     2019 1
    2124     2018     2043 1
    2125     2018     2044 1
    2126     2019     2020 1
    2127     2019     2045 1
    2128     2019     2046 1
    2129     2020     2021 1
    2130     2020     2047 1
    2131     2020     2048 1
    2132     2021     2022 1
    2133     2021     2049 1
    2134     2021     2050 1
    2135     2022     2023 1
    2136     2022     2051 1
    2137     2022     2052 1
    2138     2023     2024 1
    2139     2023     2053 1
    2140     2023     2054 1
    2141     2024     2055 1
    2142     2024     2056 1
    2143     2024     2057 1
    2144     2058     2059 1
    2145     2058     2065 1
    2146     2058     2081 1
    2147     2058     2130 1
    2148     2059     2060 1
    2149     2059     2063 1
    2150     2060     2061 1
    2151     2060     2064 1
    2152     2061     2062 1
    2153     2062     2063 1
    2154     2063     2069 1
    2155     2064     2065 1
    2156     2064     2068 1
    2157     2065     2066 1
    2158     2066     2067 1
    2159     2066     2070 1
    2160     2067     2068 1
    2161     2067     2079 1
    2162     2071     2072 1
    2163     2071     2079 1
    2164     2072     2073 1
    2165     2072     2080 1
    2166     2073     2074 1
    2167     2073     2183 1
    2168     2074     2075 1
    2169     2074     2078 1
    2170     2075     2076 1
    2171     2076     2077 1
    2172     2077     2078 1
    2173     2078     2079 1
    2174     2081     2082 1
    2175     2081     2097 1
    2176     2081     2098 1
    2177     2082     2083 1
    2178     2082     2099 1
    2179     2082     2100 1
    2180     2083     2084 1
    2181     2083     2101 1
    2182     2083     2102 1
    2183     2084     2085 1
    2184     2084     2103 1
    2185     2084     2104 1
    2186     2085     2086 1
    2187     2085     2105 1
    2188     2085     2106 1
    2189     2086     2087 1
    2190     2086     2107 1
    2191     2086     2108 1
    2192     2087     2088 1
    2193     2087     2109 1
    2194     2087     2110 1
    2195     2088     2089 1
    2196     2088     2111 1
    2197     2088     2112 1
    2198     2089     2090 1
    2199     2089     2113 1
    2200     2089     2114 1
    2201     2090     2091 1
    2202     2090     2115 1
    2203     2090     2116 1
    2204     2091     2092 1
    2205     2091     2117 1
    2206     2091     2118 1
    2207     2092     2093 1
    2208     2092     2119 1
    2209     2092     2120 1
    2210     2093     2094 1
    2211     2093     2121 1
    2212     2093     2122 1
    2213     2094     2095 1
    2214     2094     2123 1
    2215     2094     2124 1
    2216     2095     2096 1
    2217     2095     2125 1
    2218     2095     2126 1
    2219     2096     2127 1
    2220     2096     2128 1
    2221     2096     2129 1
    2222     2130     2131 1
    2223     2130     2146 1
    2224     2130     2147 1
    2225     2131     2132 1
    2226     2131     2148 1
    2227     2131     2149 1
    2228     2132     2133 1
    2229     2132     2150 1
    2230     2132     2151 1
    2231     2133     2134 1
    2232     2133     2152 1
    2233     2133     2153 1
    2234     2134     2135 1
    2235     2134     2154 1
    2236     2134     2155 1
    2237     2135     2136 1
    2238     2135     2156 1
    2239     2135     2157 1
    2240     2136     2137 1
    2241     2136     2158 1
    2242     2136     2159 1
    2243     2137     2138 1
    2244     2137     2160 1
    2245     2137     2161 1
    2246     2138     2139 1
    2247     2138     2162 1
    2248     2138     2163 1
    2249     2139     2140 1
    2250     2139     2164 1
    2251     2139     2165 1
    2252     2140     2141 1
    2253     2140     2166 1
    2254     2140     2167 1
    2255     2141     2142 1
    2256     2141     2168 1
    2257     2141     2169 1
    2258     2142     2143 1
    2259     2142     2170 1
    2260     2142     2171 1
    2261     2143     2144 1
    2262     2143     2172 1
    2263     2143     2173 1
    2264     2144     2145 1
    2265     2144     2174 1
    2266     2144     2175 1
    2267     2145     2176 1
    2268     2145     2177 1
    2269     2145     2178 1
    2270     2179     2180 1
    2271     2179     2186 1
    2272     2179     2202 1
    2273     2179     2251 1
    2274     2180     2181 1
    2275     2180     2184 1
    2276     2181     2182 1
    2277     2181     2185 1
    2278     2182     2183 1
    2279     2183     2184 1
    2280     2184     2190 1
    2281     2185     2186 1
    2282     2185     2189 1
    2283     2186     2187 1
    2284     2187     2188 1
    2285     2187     2191 1
    2286     2188     2189 1
    2287     2188     2200 1
    2288     2192     2193 1
    2289     2192     2200 1
    2290     2193     2194 1
    2291     2193     2201 1
    2292     2194     2195 1
    2293     2194     2304 1
    2294     2195     2196 1
    2295     2195     2199 1
    2296     2196     2197 1
    2297     2197     2198 1
    2298     2198     2199 1
    2299     2199     2200 1
    2300     2202     2203 1
    2301     2202     2218 1
    2302     2202     2219 1
    2303     2203     2204 1
    2304     2203     2220 1
    2305     2203     2221 1
    2306     2204     2205 1
    2307     2204     2222 1
    2308     2204     2223 1
    2309     2205     2206 1
    2310     2205     2224 1
    2311     2205     2225 1
    2312     2206     2207 1
    2313     2206     2226 1
    2314     2206     2227 1
    2315     2207     2208 1
    2316     2207     2228 1
    2317     2207     2229 1
    2318     2208     2209 1
    2319     2208     2230 1
    2320     2208     2231 1
    2321     2209     2210 1
    2322     2209     2232 1
    2323     2209     2233 1
    2324     2210     2211 1
    2325     2210     2234 1
    2326     2210     2235 1
    2327     2211     2212 1
    2328     2211     2236 1
    2329     2211     2237 1
    2330     2212     2213 1
    2331     2212     2238 1
    2332     2212     2239 1
    2333     2213     2214 1
    2334     2213     2240 1
    2335     2213     2241 1
    2336     2214     2215 1
    2337     2214     2242 1
    2338     2214     2243 1
    2339     2215     2216 1
    2340     2215     2244 1
    2341     2215     2245 1
    2342     2216     2217 1
    2343     2216     2246 1
    2344     2216     2247 1
    2345     2217     2248 1
    2346     2217     2249 1
    2347     2217     2250 1
    2348     2251     2252 1
    2349     2251     2267 1
    2350     2251     2268 1
    2351     2252     2253 1
    2352     2252     2269 1
    2353     2252     2270 1
    2354     2253     2254 1
    2355     2253     2271 1
    2356     2253     2272 1
    2357     2254     2255 1
    2358     2254     2273 1
    2359     2254     2274 1
    2360     2255     2256 1
    2361     2255     2275 1
    2362     2255     2276 1
    2363     2256     2257 1
    2364     2256     2277 1
    2365     2256     2278 1
    2366     2257     2258 1
    2367     2257     2279 1
    2368     2257     2280 1
    2369     2258     2259 1
    2370     2258     2281 1
    2371     2258     2282 1
    2372     2259     2260 1
    2373     2259     2283 1
    2374     2259     2284 1
    2375     2260     2261 1
    2376     2260     2285 1
    2377     2260     2286 1
    2378     2261     2262 1
    2379     2261     2287 1
    2380     2261     2288 1
    2381     2262     2263 1
    2382     2262     2289 1
    2383     2262     2290 1
    2384     2263     2264 1
    2385     2263     2291 1
    2386     2263     2292 1
    2387     2264     2265 1
    2388     2264     2293 1
    2389     2264     2294 1
    2390     2265     2266 1
    2391     2265     2295 1
    2392     2265     2296 1
    2393     2266     2297 1
    2394     2266     2298 1
    2395     2266     2299 1
    2396     2300     2301 1
    2397     2300     2307 1
    2398     2300     2323 1
    2399     2300     2372 1
    2400     2301     2302 1
    2401     2301     2305 1
    2402     2302     2303 1
    2403     2302     2306 1
    2404     2303     2304 1
    2405     2304     2305 1
    2406     2305     2311 1
    2407     2306     2307 1
    2408     2306     2310 1
    2409     2307     2308 1
    2410     2308     2309 1
    2411     2308     2312 1
    2412     2309     2310 1
    2413     2309     2321 1
    2414     2313     2314 1
    2415     2313     2321 1
    2416     2314     2315 1
    2417     2314     2322 1
    2418     2315     2316 1
    2419     2315     2425 1
    2420     2316     2317 1
    2421     2316     2320 1
    2422     2317     2318 1
    2423     2318     2319 1
    2424     2319     2320 1
    2425     2320     2321 1
    2426     2323     2324 1
    2427     2323     2339 1
    2428     2323     2340 1
    2429     2324     2325 1
    2430     2324     2341 1
    2431     2324     2342 1
    2432     2325     2326 1
    2433     2325     2343 1
    2434     2325     2344 1
    2435     2326     2327 1
    2436     2326     2345 1
    2437     2326     2346 1
    2438     2327     2328 1
    2439     2327     2347 1
    2440     2327     2348 1
    2441     2328     2329 1
    2442     2328     2349 1
    2443     2328     2350 1
    2444     2329     2330 1
    2445     2329     2351 1
    2446     2329     2352 1
    2447     2330     2331 1
    2448     2330     2353 1
    2449     2330     2354 1
    2450     2331     2332 1
    2451     2331     2355 1
    2452     2331     2356 1
    2453     2332     2333 1
    2454     2332     2357 1
    2455     2332     2358 1
    2456     2333     2334 1
    2457     2333     2359 1
    2458     2333     2360 1
    2459     2334     2335 1
    2460     2334     2361 1
    2461     2334     2362 1
    2462     2335     2336 1
    2463     2335     2363 1
    2464     2335     2364 1
    2465     2336     2337 1
    2466     2336     2365 1
    2467     2336     2366 1
    2468     2337     2338 1
    2469     2337     2367 1
    2470     2337     2368 1
    2471     2338     2369 1
    2472     2338     2370 1
    2473     2338     2371 1
    2474     2372     2373 1
    2475     2372     2388 1
    2476     2372     2389 1
    2477     2373     2374 1
    2478     2373     2390 1
    2479     2373     2391 1
    2480     2374     2375 1
    2481     2374     2392 1
    2482     2374     2393 1
    2483     2375     2376 1
    2484     2375     2394 1
    2485     2375     2395 1
    2486     2376     2377 1
    2487     2376     2396 1
    2488     2376     2397 1
    2489     2377     2378 1
    2490     2377     2398 1
    2491     2377     2399 1
    2492     2378     2379 1
    2493     2378     2400 1
    2494     2378     2401 1
    2495     2379     2380 1
    2496     2379     2402 1
    2497     2379     2403 1
    2498     2380     2381 1
    2499     2380     2404 1
    2500     2380     2405 1
    2501     2381     2382 1
    2502     2381     2406 1
    2503     2381     2407 1
    2504     2382     2383 1
    2505     2382     2408 1
    2506     2382     2409 1
    2507     2383     2384 1
    2508     2383     2410 1
    2509     2383     2411 1
    2510     2384     2385 1
    2511     2384     2412 1
    2512     2384     2413 1
    2513     2385     2386 1
    2514     2385     2414 1
    2515     2385     2415 1
    2516     2386     2387 1
    2517     2386     2416 1
    2518     2386     2417 1
    2519     2387     2418 1
    2520     2387     2419 1
    2521     2387     2420 1
    2522     2421     2422 1
    2523     2421     2428 1
    2524     2421     2444 1
    2525     2421     2493 1
    2526     2422     2423 1
    2527     2422     2426 1
    2528     2423     2424 1
    2529     2423     2427 1
    2530     2424     2425 1
    2531     2425     2426 1
    2532     2426     2432 1
    2533     2427     2428 1
    2534     2427     2431 1
    2535     2428     2429 1
    2536     2429     2430 1
    2537     2429     2433 1
    2538     2430     2431 1
    2539     2430     2442 1
    2540     2434     2435 1
    2541     2434     2442 1
    2542     2435     2436 1
    2543     2435     2443 1
    2544     2436     2437 1
    2545     2436     2546 1
    2546     2437     2438 1
    2547     2437     2441 1
    2548     2438     2439 1
    2549     2439     2440 1
    2550     2440     2441 1
    2551     2441     2442 1
    2552     2444     2445 1
    2553     2444     2460 1
    2554     2444     2461 1
    2555     2445     2446 1
    2556     2445     2462 1
    2557     2445     2463 1
    2558     2446     2447 1
    2559     2446     2464 1
    2560     2446     2465 1
    2561     2447     2448 1
    2562     2447     2466 1
    2563     2447     2467 1
    2564     2448     2449 1
    2565     2448     2468 1
    2566     2448     2469 1
    2567     2449     2450 1
    2568     2449     2470 1
    2569     2449     2471 1
    2570     2450     2451 1
    2571     2450     2472 1
    2572     2450     2473 1
    2573     2451     2452 1
    2574     2451     2474 1
    2575     2451     2475 1
    2576     2452     2453 1
    2577     2452     2476 1
    2578     2452     2477 1
    2579     2453     2454 1
    2580     2453     2478 1
    2581     2453     2479 1
    2582     2454     2455 1
    2583     2454     2480 1
    2584     2454     2481 1
    2585     2455     2456 1
    2586     2455     2482 1
    2587     2455     2483 1
    2588     2456     2457 1
    2589     2456     2484 1
    2590     2456     2485 1
    2591     2457     2458 1
    2592     2457     2486 1
    2593     2457     2487 1
    2594     2458     2459 1
    2595     2458     2488 1
    2596     2458     2489 1
    2597     2459     2490 1
    2598     2459     2491 1
    2599     2459     2492 1
    2600     2493     2494 1
    2601     2493     2509 1
    2602     2493     2510 1
    2603     2494     2495 1
    2604     2494     2511 1
    2605     2494     2512 1
    2606     2495     2496 1
    2607     2495     2513 1
    2608     2495     2514 1
    2609     2496     2497 1
    2610     2496     2515 1
    2611     2496     2516 1
    2612     2497     2498 1
    2613     2497     2517 1
    2614     2497     2518 1
    2615     2498     2499 1
    2616     2498     2519 1
    2617     2498     2520 1
    2618     2499     2500 1
    2619     2499     2521 1
    2620     2499     2522 1
    2621     2500     2501 1
    2622     2500     2523 1
    2623     2500     2524 1
    2624     2501     2502 1
    2625     2501     2525 1
    2626     2501     2526 1
    2627     2502     2503 1
    2628     2502     2527 1
    2629     2502     2528 1
    2630     2503     2504 1
    2631     2503     2529 1
    2632     2503     2530 1
    2633     2504     2505 1
    2634     2504     2531 1
    2635     2504     2532 1
    2636     2505     2506 1
    2637     2505     2533 1
    2638     2505     2534 1
    2639     2506     2507 1
    2640     2506     2535 1
    2641     2506     2536 1
    2642     2507     2508 1
    2643     2507     2537 1
    2644     2507     2538 1
    2645     2508     2539 1
    2646     2508     2540 1
    2647     2508     2541 1
    2648     2542     2543 1
    2649     2542     2549 1
    2650     2542     2565 1
    2651     2542     2614 1
    2652     2543     2544 1
    2653     2543     2547 1
    2654     2544     2545 1
    2655     2544     2548 1
    2656     2545     2546 1
    2657     2546     2547 1
    2658     2547     2553 1
    2659     2548     2549 1
    2660     2548     2552 1
    2661     2549     2550 1
    2662     2550     2551 1
    2663     2550     2554 1
    2664     2551     2552 1
    2665     2551     2563 1
    2666     2555     2556 1
    2667     2555     2563 1
    2668     2556     2557 1
    2669     2556     2564 1
    2670     2557     2558 1
    2671     2557     2667 1
    2672     2558     2559 1
    2673     2558     2562 1
    2674     2559     2560 1
    2675     2560     2561 1
    2676     2561     2562 1
    2677     2562     2563 1
    2678     2565     2566 1
    2679     2565     2581 1
    2680     2565     2582 1
    2681     2566     2567 1
    2682     2566     2583 1
    2683     2566     2584 1
    2684     2567     2568 1
    2685     2567     2585 1
    2686     2567     2586 1
    2687     2568     2569 1
    2688     2568     2587 1
    2689     2568     2588 1
    2690     2569     2570 1
    2691     2569     2589 1
    2692     2569     2590 1
    2693     2570     2571 1
    2694     2570     2591 1
    2695     2570     2592 1
    2696     2571     2572 1
    2697     2571     2593 1
    2698     2571     2594 1
    2699     2572     2573 1
    2700     2572     2595 1
    2701     2572     2596 1
    2702     2573     2574 1
    2703     2573     2597 1
    2704     2573     2598 1
    2705     2574     2575 1
    2706     2574     2599 1
    2707     2574     2600 1
    2708     2575     2576 1
    2709     2575     2601 1
    2710     2575     2602 1
    2711     2576     2577 1
    2712     2576     2603 1
    2713     2576     2604 1
    2714     2577     2578 1
    2715     2577     2605 1
    2716     2577     2606 1
    2717     2578     2579 1
    2718     2578     2607 1
    2719     2578     2608 1
    2720     2579     2580 1
    2721     2579     2609 1
    2722     2579     2610 1
    2723     2580     2611 1
    2724     2580     2612 1
    2725     2580     2613 1
    2726     2614     2615 1
    2727     2614     2630 1
    2728     2614     2631 1
    2729     2615     2616 1
    2730     2615     2632 1
    2731     2615     2633 1
    2732     2616     2617 1
    2733     2616     2634 1
    2734     2616     2635 1
    2735     2617     2618 1
    2736     2617     2636 1
    2737     2617     2637 1
    2738     2618     2619 1
    2739     2618     2638 1
    2740     2618     2639 1
    2741     2619     2620 1
    2742     2619     2640 1
    2743     2619     2641 1
    2744     2620     2621 1
    2745     2620     2642 1
    2746     2620     2643 1
    2747     2621     2622 1
    2748     2621     2644 1
    2749     2621     2645 1
    2750     2622     2623 1
    2751     2622     2646 1
    2752     2622     2647 1
    2753     2623     2624 1
    2754     2623     2648 1
    2755     2623     2649 1
    2756     2624     2625 1
    2757     2624     2650 1
    2758     2624     2651 1
    2759     2625     2626 1
    2760     2625     2652 1
    2761     2625     2653 1
    2762     2626     2627 1
    2763     2626     2654 1
    2764     2626     2655 1
    2765     2627     2628 1
    2766     2627     2656 1
    2767     2627     2657 1
    2768     2628     2629 1
    2769     2628     2658 1
    2770     2628     2659 1
    2771     2629     2660 1
    2772     2629     2661 1
    2773     2629     2662 1
    2774     2663     2664 1
    2775     2663     2670 1
    2776     2663     2686 1
    2777     2663     2735 1
    2778     2664     2665 1
    2779     2664     2668 1
    2780     2665     2666 1
    2781     2665     2669 1
    2782     2666     2667 1
    2783     2667     2668 1
    2784     2668     2674 1
    2785     2669     2670 1
    2786     2669     2673 1
    2787     2670     2671 1
    2788     2671     2672 1
    2789     2671     2675 1
    2790     2672     2673 1
    2791     2672     2684 1
    2792     2676     2677 1
    2793     2676     2684 1
    2794     2677     2678 1
    2795     2677     2685 1
    2796     2678     2679 1
    2797     2678     2788 1
    2798     2679     2680 1
    2799     2679     2683 1
    2800     2680     2681 1
    2801     2681     2682 1
    2802     2682     2683 1
    2803     2683     2684 1
    2804     2686     2687 1
    2805     2686     2702 1
    2806     2686     2703 1
    2807     2687     2688 1
    2808     2687     2704 1
    2809     2687     2705 1
    2810     2688     2689 1
    2811     2688     2706 1
    2812     2688     2707 1
    2813     2689     2690 1
    2814     2689     2708 1
    2815     2689     2709 1
    2816     2690     2691 1
    2817     2690     2710 1
    2818     2690     2711 1
    2819     2691     2692 1
    2820     2691     2712 1
    2821     2691     2713 1
    2822     2692     2693 1
    2823     2692     2714 1
    2824     2692     2715 1
    2825     2693     2694 1
    2826     2693     2716 1
    2827     2693     2717 1
    2828     2694     2695 1
    2829     2694     2718 1
    2830     2694     2719 1
    2831     2695     2696 1
    2832     2695     2720 1
    2833     2695     2721 1
    2834     2696     2697 1
    2835     2696     2722 1
    2836     2696     2723 1
    2837     2697     2698 1
    2838     2697     2724 1
    2839     2697     2725 1
    2840     2698     2699 1
    2841     2698     2726 1
    2842     2698     2727 1
    2843     2699     2700 1
    2844     2699     2728 1
    2845     2699     2729 1
    2846     2700     2701 1
    2847     2700     2730 1
    2848     2700     2731 1
    2849     2701     2732 1
    2850     2701     2733 1
    2851     2701     2734 1
    2852     2735     2736 1
    2853     2735     2751 1
    2854     2735     2752 1
    2855     2736     2737 1
    2856     2736     2753 1
    2857     2736     2754 1
    2858     2737     2738 1
    2859     2737     2755 1
    2860     2737     2756 1
    2861     2738     2739 1
    2862     2738     2757 1
    2863     2738     2758 1
    2864     2739     2740 1
    2865     2739     2759 1
    2866     2739     2760 1
    2867     2740     2741 1
    2868     2740     2761 1
    2869     2740     2762 1
    2870     2741     2742 1
    2871     2741     2763 1
    2872     2741     2764 1
    2873     2742     2743 1
    2874     2742     2765 1
    2875     2742     2766 1
    2876     2743     2744 1
    2877     2743     2767 1
    2878     2743     2768 1
    2879     2744     2745 1
    2880     2744     2769 1
    2881     2744     2770 1
    2882     2745     2746 1
    2883     2745     2771 1
    2884     2745     2772 1
    2885     2746     2747 1
    2886     2746     2773 1
    2887     2746     2774 1
    2888     2747     2748 1
    2889     2747     2775 1
    2890     2747     2776 1
    2891     2748     2749 1
    2892     2748     2777 1
    2893     2748     2778 1
    2894     2749     2750 1
    2895     2749     2779 1
    2896     2749     2780 1
    2897     2750     2781 1
    2898     2750     2782 1
    2899     2750     2783 1
    2900     2784     2785 1
    2901     2784     2791 1
    2902     2784     2807 1
    2903     2784     2856 1
    2904     2785     2786 1
    2905     2785     2789 1
    2906     2786     2787 1
    2907     2786     2790 1
    2908     2787     2788 1
    2909     2788     2789 1
    2910     2789     2795 1
    2911     2790     2791 1
    2912     2790     2794 1
    2913     2791     2792 1
    2914     2792     2793 1
    2915     2792     2796 1
    2916     2793     2794 1
    2917     2793     2805 1
    2918     2797     2798 1
    2919     2797     2805 1
    2920     2798     2799 1
    2921     2798     2806 1
    2922     2799     2800 1
    2923     2799     2909 1
    2924     2800     2801 1
    2925     2800     2804 1
    2926     2801     2802 1
    2927     2802     2803 1
    2928     2803     2804 1
    2929     2804     2805 1
    2930     2807     2808 1
    2931     2807     2823 1
    2932     2807     2824 1
    2933     2808     2809 1
    2934     2808     2825 1
    2935     2808     2826 1
    2936     2809     2810 1
    2937     2809     2827 1
    2938     2809     2828 1
    2939     2810     2811 1
    2940     2810     2829 1
    2941     2810     2830 1
    2942     2811     2812 1
    2943     2811     2831 1
    2944     2811     2832 1
    2945     2812     2813 1
    2946     2812     2833 1
    2947     2812     2834 1
    2948     2813     2814 1
    2949     2813     2835 1
    2950     2813     2836 1
    2951     2814     2815 1
    2952     2814     2837 1
    2953     2814     2838 1
    2954     2815     2816 1
    2955     2815     2839 1
    2956     2815     2840 1
    2957     2816     2817 1
    2958     2816     2841 1
    2959     2816     2842 1
    2960     2817     2818 1
    2961     2817     2843 1
    2962     2817     2844 1
    2963     2818     2819 1
    2964     2818     2845 1
    2965     2818     2846 1
    2966     2819     2820 1
    2967     2819     2847 1
    2968     2819     2848 1
    2969     2820     2821 1
    2970     2820     2849 1
    2971     2820     2850 1
    2972     2821     2822 1
    2973     2821     2851 1
    2974     2821     2852 1
    2975     2822     2853 1
    2976     2822     2854 1
    2977     2822     2855 1
    2978     2856     2857 1
    2979     2856     2872 1
    2980     2856     2873 1
    2981     2857     2858 1
    2982     2857     2874 1
    2983     2857     2875 1
    2984     2858     2859 1
    2985     2858     2876 1
    2986     2858     2877 1
    2987     2859     2860 1
    2988     2859     2878 1
    2989     2859     2879 1
    2990     2860     2861 1
    2991     2860     2880 1
    2992     2860     2881 1
    2993     2861     2862 1
    2994     2861     2882 1
    2995     2861     2883 1
    2996     2862     2863 1
    2997     2862     2884 1
    2998     2862     2885 1
    2999     2863     2864 1
    3000     2863     2886 1
    3001     2863     2887 1
    3002     2864     2865 1
    3003     2864     2888 1
    3004     2864     2889 1
    3005     2865     2866 1
    3006     2865     2890 1
    3007     2865     2891 1
    3008     2866     2867 1
    3009     2866     2892 1
    3010     2866     2893 1
    3011     2867     2868 1
    3012     2867     2894 1
    3013     2867     2895 1
    3014     2868     2869 1
    3015     2868     2896 1
    3016     2868     2897 1
    3017     2869     2870 1
    3018     2869     2898 1
    3019     2869     2899 1
    3020     2870     2871 1
    3021     2870     2900 1
    3022     2870     2901 1
    3023     2871     2902 1
    3024     2871     2903 1
    3025     2871     2904 1
    3026     2905     2906 1
    3027     2905     2912 1
    3028     2905     2928 1
    3029     2905     2977 1
    3030     2906     2907 1
    3031     2906     2910 1
    3032     2907     2908 1
    3033     2907     2911 1
    3034     2908     2909 1
    3035     2909     2910 1
    3036     2910     2916 1
    3037     2911     2912 1
    3038     2911     2915 1
    3039     2912     2913 1
    3040     2913     2914 1
    3041     2913     2917 1
    3042     2914     2915 1
    3043     2914     2926 1
    3044     2918     2919 1
    3045     2918     2926 1
    3046     2919     2920 1
    3047     2919     2927 1
    3048     2920     2921 1
    3049     2920     3030 1
    3050     2921     2922 1
    3051     2921     2925 1
    3052     2922     2923 1
    3053     2923     2924 1
    3054     2924     2925 1
    3055     2925     2926 1
    3056     2928     2929 1
    3057     2928     2944 1
    3058     2928     2945 1
    3059     2929     2930 1
    3060     2929     2946 1
    3061     2929     2947 1
    3062     2930     2931 1
    3063     2930     2948 1
    3064     2930     2949 1
    3065     2931     2932 1
    3066     2931     2950 1
    3067     2931     2951 1
    3068     2932     2933 1
    3069     2932     2952 1
    3070     2932     2953 1
    3071     2933     2934 1
    3072     2933     2954 1
    3073     2933     2955 1
    3074     2934     2935 1
    3075     2934     2956 1
    3076     2934     2957 1
    3077     2935     2936 1
    3078     2935     2958 1
    3079     2935     2959 1
    3080     2936     2937 1
    3081     2936     2960 1
    3082     2936     2961 1
    3083     2937     2938 1
    3084     2937     2962 1
    3085     2937     2963 1
    3086     2938     2939 1
    3087     2938     2964 1
    3088     2938     2965 1
    3089     2939     2940 1
    3090     2939     2966 1
    3091     2939     2967 1
    3092     2940     2941 1
    3093     2940     2968 1
    3094     2940     2969 1
    3095     2941     2942 1
    3096     2941     2970 1
    3097     2941     2971 1
    3098     2942     2943 1
    3099     2942     2972 1
    3100     2942     2973 1
    3101     2943     2974 1
    3102     2943     2975 1
    3103     2943     2976 1
    3104     2977     2978 1
    3105     2977     2993 1
    3106     2977     2994 1
    3107     2978     2979 1
    3108     2978     2995 1
    3109     2978     2996 1
    3110     2979     2980 1
    3111     2979     2997 1
    3112     2979     2998 1
    3113     2980     2981 1
    3114     2980     2999 1
    3115     2980     3000 1
    3116     2981     2982 1
    3117     2981     3001 1
    3118     2981     3002 1
    3119     2982     2983 1
    3120     2982     3003 1
    3121     2982     3004 1
    3122     2983     2984 1
    3123     2983     3005 1
    3124     2983     3006 1
    3125     2984     2985 1
    3126     2984     3007 1
    3127     2984     3008 1
    3128     2985     2986 1
    3129     2985     3009 1
    3130     2985     3010 1
    3131     2986     2987 1
    3132     2986     3011 1
    3133     2986     3012 1
    3134     2987     2988 1
    3135     2987     3013 1
    3136     2987     3014 1
    3137     2988     2989 1
    3138     2988     3015 1
    3139     2988     3016 1
    3140     2989     2990 1
    3141     2989     3017 1
    3142     2989     3018 1
    3143     2990     2991 1
    3144     2990     3019 1
    3145     2990     3020 1
    3146     2991     2992 1
    3147     2991     3021 1
    3148     2991     3022 1
    3149     2992     3023 1
    3150     2992     3024 1
    3151     2992     3025 1
    3152     3026     3027 1
    3153     3026     3033 1
    3154     3026     3049 1
    3155     3026     3098 1
    3156     3027     3028 1
    3157     3027     3031 1
    3158     3028     3029 1
    3159     3028     3032 1
    3160     3029     3030 1
    3161     3030     3031 1
    3162     3031     3037 1
    3163     3032     3033 1
    3164     3032     3036 1
    3165     3033     3034 1
    3166     3034     3035 1
    3167     3034     3038 1
    3168     3035     3036 1
    3169     3035     3047 1
    3170     3039     3040 1
    3171     3039     3047 1
    3172     3040     3041 1
    3173     3040     3048 1
    3174     3041     3042 1
    3175     3041     3151 1
    3176     3042     3043 1
    3177     3042     3046 1
    3178     3043     3044 1
    3179     3044     3045 1
    3180     3045     3046 1
    3181     3046     3047 1
    3182     3049     3050 1
    3183     3049     3065 1
    3184     3049     3066 1
    3185     3050     3051 1
    3186     3050     3067 1
    3187     3050     3068 1
    3188     3051     3052 1
    3189     3051     3069 1
    3190     3051     3070 1
    3191     3052     3053 1
    3192     3052     3071 1
    3193     3052     3072 1
    3194     3053     3054 1
    3195     3053     3073 1
    3196     3053     3074 1
    3197     3054     3055 1
    3198     3054     3075 1
    3199     3054     3076 1
    3200     3055     3056 1
    3201     3055     3077 1
    3202     3055     3078 1
    3203     3056     3057 1
    3204     3056     3079 1
    3205     3056     3080 1
    3206     3057     3058 1
    3207     3057     3081 1
    3208     3057     3082 1
    3209     3058     3059 1
    3210     3058     3083 1
    3211     3058     3084 1
    3212     3059     3060 1
    3213     3059     3085 1
    3214     3059     3086 1
    3215     3060     3061 1
    3216     3060     3087 1
    3217     3060     3088 1
    3218     3061     3062 1
    3219     3061     3089 1
    3220     3061     3090 1
    3221     3062     3063 1
    3222     3062     3091 1
    3223     3062     3092 1
    3224     3063     3064 1
    3225     3063     3093 1
    3226     3063     3094 1
    3227     3064     3095 1
    3228     3064     3096 1
    3229     3064     3097 1
    3230     3098     3099 1
    3231     3098     3114 1
    3232     3098     3115 1
    3233     3099     3100 1
    3234     3099     3116 1
    3235     3099     3117 1
    3236     3100     3101 1
    3237     3100     3118 1
    3238     3100     3119 1
    3239     3101     3102 1
    3240     3101     3120 1
    3241     3101     3121 1
    3242     3102     3103 1
    3243     3102     3122 1
    3244     3102     3123 1
    3245     3103     3104 1
    3246     3103     3124 1
    3247     3103     3125 1
    3248     3104     3105 1
    3249     3104     3126 1
    3250     3104     3127 1
    3251     3105     3106 1
    3252     3105     3128 1
    3253     3105     3129 1
    3254     3106     3107 1
    3255     3106     3130 1
    3256     3106     3131 1
    3257     3107     3108 1
    3258     3107     3132 1
    3259     3107     3133 1
    3260     3108     3109 1
    3261     3108     3134 1
    3262     3108     3135 1
    3263     3109     3110 1
    3264     3109     3136 1
    3265     3109     3137 1
    3266     3110     3111 1
    3267     3110     3138 1
    3268     3110     3139 1
    3269     3111     3112 1
    3270     3111     3140 1
    3271     3111     3141 1
    3272     3112     3113 1
    3273     3112     3142 1
    3274     3112     3143 1
    3275     3113     3144 1
    3276     3113     3145 1
    3277     3113     3146 1
    3278     3147     3148 1
    3279     3147     3154 1
    3280     3147     3170 1
    3281     3147     3219 1
    3282     3148     3149 1
    3283     3148     3152 1
    3284     3149     3150 1
    3285     3149     3153 1
    3286     3150     3151 1
    3287     3151     3152 1
    3288     3152     3158 1
    3289     3153     3154 1
    3290     3153     3157 1
    3291     3154     3155 1
    3292     3155     3156 1
    3293     3155     3159 1
    3294     3156     3157 1
    3295     3156     3168 1
    3296     3160     3161 1
    3297     3160     3168 1
    3298     3161     3162 1
    3299     3161     3169 1
    3300     3162     3163 1
    3301     3162     3272 1
    3302     3163     3164 1
    3303     3163     3167 1
    3304     3164     3165 1
    3305     3165     3166 1
    3306     3166     3167 1
    3307     3167     3168 1
    3308     3170     3171 1
    3309     3170     3186 1
    3310     3170     3187 1
    3311     3171     3172 1
    3312     3171     3188 1
    3313     3171     3189 1
    3314     3172     3173 1
    3315     3172     3190 1
    3316     3172     3191 1
    3317     3173     3174 1
    3318     3173     3192 1
    3319     3173     3193 1
    3320     3174     3175 1
    3321     3174     3194 1
    3322     3174     3195 1
    3323     3175     3176 1
    3324     3175     3196 1
    3325     3175     3197 1
    3326     3176     3177 1
    3327     3176     3198 1
    3328     3176     3199 1
    3329     3177     3178 1
    3330     3177     3200 1
    3331     3177     3201 1
    3332     3178     3179 1
    3333     3178     3202 1
    3334     3178     3203 1
    3335     3179     3180 1
    3336     3179     3204 1
    3337     3179     3205 1
    3338     3180     3181 1
    3339     3180     3206 1
    3340     3180     3207 1
    3341     3181     3182 1
    3342     3181     3208 1
    3343     3181     3209 1
    3344     3182     3183 1
    3345     3182     3210 1
    3346     3182     3211 1
    3347     3183     3184 1
    3348     3183     3212 1
    3349     3183     3213 1
    3350     3184     3185 1
    3351     3184     3214 1
    3352     3184     3215 1
    3353     3185     3216 1
    3354     3185     3217 1
    3355     3185     3218 1
    3356     3219     3220 1
    3357     3219     3235 1
    3358     3219     3236 1
    3359     3220     3221 1
    3360     3220     3237 1
    3361     3220     3238 1
    3362     3221     3222 1
    3363     3221     3239 1
    3364     3221     3240 1
    3365     3222     3223 1
    3366     3222     3241 1
    3367     3222     3242 1
    3368     3223     3224 1
    3369     3223     3243 1
    3370     3223     3244 1
    3371     3224     3225 1
    3372     3224     3245 1
    3373     3224     3246 1
    3374     3225     3226 1
    3375     3225     3247 1
    3376     3225     3248 1
    3377     3226     3227 1
    3378     3226     3249 1
    3379     3226     3250 1
    3380     3227     3228 1
    3381     3227     3251 1
    3382     3227     3252 1
    3383     3228     3229 1
    3384     3228     3253 1
    3385     3228     3254 1
    3386     3229     3230 1
    3387     3229     3255 1
    3388     3229     3256 1
    3389     3230     3231 1
    3390     3230     3257 1
    3391     3230     3258 1
    3392     3231     3232 1
    3393     3231     3259 1
    3394     3231     3260 1
    3395     3232     3233 1
    3396     3232     3261 1
    3397     3232     3262 1
    3398     3233     3234 1
    3399     3233     3263 1
    3400     3233     3264 1
    3401     3234     3265 1
    3402     3234     3266 1
    3403     3234     3267 1
    3404     3268     3269 1
    3405     3268     3275 1
    3406     3268     3291 1
    3407     3268     3340 1
    3408     3269     3270 1
    3409     3269     3273 1
    3410     3270     3271 1
    3411     3270     3274 1
    3412     3271     3272 1
    3413     3272     3273 1
    3414     3273     3279 1
    3415     3274     3275 1
    3416     3274     3278 1
    3417     3275     3276 1
    3418     3276     3277 1
    3419     3276     3280 1
    3420     3277     3278 1
    3421     3277     3289 1
    3422     3281     3282 1
    3423     3281     3289 1
    3424     3282     3283 1
    3425     3282     3290 1
    3426     3283     3284 1
    3427     3283     3393 1
    3428     3284     3285 1
    3429     3284     3288 1
    3430     3285     3286 1
    3431     3286     3287 1
    3432     3287     3288 1
    3433     3288     3289 1
    3434     3291     3292 1
    3435     3291     3307 1
    3436     3291     3308 1
    3437     3292     3293 1
    3438     3292     3309 1
    3439     3292     3310 1
    3440     3293     3294 1
    3441     3293     3311 1
    3442     3293     3312 1
    3443     3294     3295 1
    3444     3294     3313 1
    3445     3294     3314 1
    3446     3295     3296 1
    3447     3295     3315 1
    3448     3295     3316 1
    3449     3296     3297 1
    3450     3296     3317 1
    3451     3296     3318 1
    3452     3297     3298 1
    3453     3297     3319 1
    3454     3297     3320 1
    3455     3298     3299 1
    3456     3298     3321 1
    3457     3298     3322 1
    3458     3299     3300 1
    3459     3299     3323 1
    3460     3299     3324 1
    3461     3300     3301 1
    3462     3300     3325 1
    3463     3300     3326 1
    3464     3301     3302 1
    3465     3301     3327 1
    3466     3301     3328 1
    3467     3302     3303 1
    3468     3302     3329 1
    3469     3302     3330 1
    3470     3303     3304 1
    3471     3303     3331 1
    3472     3303     3332 1
    3473     3304     3305 1
    3474     3304     3333 1
    3475     3304     3334 1
    3476     3305     3306 1
    3477     3305     3335 1
    3478     3305     3336 1
    3479     3306     3337 1
    3480     3306     3338 1
    3481     3306     3339 1
    3482     3340     3341 1
    3483     3340     3356 1
    3484     3340     3357 1
    3485     3341     3342 1
    3486     3341     3358 1
    3487     3341     3359 1
    3488     3342     3343 1
    3489     3342     3360 1
    3490     3342     3361 1
    3491     3343     3344 1
    3492     3343     3362 1
    3493     3343     3363 1
    3494     3344     3345 1
    3495     3344     3364 1
    3496     3344     3365 1
    3497     3345     3346 1
    3498     3345     3366 1
    3499     3345     3367 1
    3500     3346     3347 1
    3501     3346     3368 1
    3502     3346     3369 1
    3503     3347     3348 1
    3504     3347     3370 1
    3505     3347     3371 1
    3506     3348     3349 1
    3507     3348     3372 1
    3508     3348     3373 1
    3509     3349     3350 1
    3510     3349     3374 1
    3511     3349     3375 1
    3512     3350     3351 1
    3513     3350     3376 1
    3514     3350     3377 1
    3515     3351     3352 1
    3516     3351     3378 1
    3517     3351     3379 1
    3518     3352     3353 1
    3519     3352     3380 1
    3520     3352     3381 1
    3521     3353     3354 1
    3522     3353     3382 1
    3523     3353     3383 1
    3524     3354     3355 1
    3525     3354     3384 1
    3526     3354     3385 1
    3527     3355     3386 1
    3528     3355     3387 1
    3529     3355     3388 1
    3530     3389     3390 1
    3531     3389     3396 1
    3532     3389     3412 1
    3533     3389     3461 1
    3534     3390     3391 1
    3535     3390     3394 1
    3536     3391     3392 1
    3537     3391     3395 1
    3538     3392     3393 1
    3539     3393     3394 1
    3540     3394     3400 1
    3541     3395     3396 1
    3542     3395     3399 1
    3543     3396     3397 1
    3544     3397     3398 1
    3545     3397     3401 1
    3546     3398     3399 1
    3547     3398     3410 1
    3548     3402     3403 1
    3549     3402     3410 1
    3550     3403     3404 1
    3551     3403     3411 1
    3552     3404     3405 1
    3553     3404     3514 1
    3554     3405     3406 1
    3555     3405     3409 1
    3556     3406     3407 1
    3557     3407     3408 1
    3558     3408     3409 1
    3559     3409     3410 1
    3560     3412     3413 1
    3561     3412     3428 1
    3562     3412     3429 1
    3563     3413     3414 1
    3564     3413     3430 1
    3565     3413     3431 1
    3566     3414     3415 1
    3567     3414     3432 1
    3568     3414     3433 1
    3569     3415     3416 1
    3570     3415     3434 1
    3571     3415     3435 1
    3572     3416     3417 1
    3573     3416     3436 1
    3574     3416     3437 1
    3575     3417     3418 1
    3576     3417     3438 1
    3577     3417     3439 1
    3578     3418     3419 1
    3579     3418     3440 1
    3580     3418     3441 1
    3581     3419     3420 1
    3582     3419     3442 1
    3583     3419     3443 1
    3584     3420     3421 1
    3585     3420     3444 1
    3586     3420     3445 1
    3587     3421     3422 1
    3588     3421     3446 1
    3589     3421     3447 1
    3590     3422     3423 1
    3591     3422     3448 1
    3592     3422     3449 1
    3593     3423     3424 1
    3594     3423     3450 1
    3595     3423     3451 1
    3596     3424     3425 1
    3597     3424     3452 1
    3598     3424     3453 1
    3599     3425     3426 1
    3600     3425     3454 1
    3601     3425     3455 1
    3602     3426     3427 1
    3603     3426     3456 1
    3604     3426     3457 1
    3605     3427     3458 1
    3606     3427     3459 1
    3607     3427     3460 1
    3608     3461     3462 1
    3609     3461     3477 1
    3610     3461     3478 1
    3611     3462     3463 1
    3612     3462     3479 1
    3613     3462     3480 1
    3614     3463     3464 1
    3615     3463     3481 1
    3616     3463     3482 1
    3617     3464     3465 1
    3618     3464     3483 1
    3619     3464     3484 1
    3620     3465     3466 1
    3621     3465     3485 1
    3622     3465     3486 1
    3623     3466     3467 1
    3624     3466     3487 1
    3625     3466     3488 1
    3626     3467     3468 1
    3627     3467     3489 1
    3628     3467     3490 1
    3629     3468     3469 1
    3630     3468     3491 1
    3631     3468     3492 1
    3632     3469     3470 1
    3633     3469     3493 1
    3634     3469     3494 1
    3635     3470     3471 1
    3636     3470     3495 1
    3637     3470     3496 1
    3638     3471     3472 1
    3639     3471     3497 1
    3640     3471     3498 1
    3641     3472     3473 1
    3642     3472     3499 1
    3643     3472     3500 1
    3644     3473     3474 1
    3645     3473     3501 1
    3646     3473     3502 1
    3647     3474     3475 1
    3648     3474     3503 1
    3649     3474     3504 1
    3650     3475     3476 1
    3651     3475     3505 1
    3652     3475     3506 1
    3653     3476     3507 1
    3654     3476     3508 1
    3655     3476     3509 1
    3656     3510     3511 1
    3657     3510     3517 1
    3658     3510     3533 1
    3659     3510     3582 1
    3660     3511     3512 1
    3661     3511     3515 1
    3662     3512     3513 1
    3663     3512     3516 1
    3664     3513     3514 1
    3665     3514     3515 1
    3666     3515     3521 1
    3667     3516     3517 1
    3668     3516     3520 1
    3669     3517     3518 1
    3670     3518     3519 1
    3671     3518     3522 1
    3672     3519     3520 1
    3673     3519     3531 1
    3674     3523     3524 1
    3675     3523     3531 1
    3676     3524     3525 1
    3677     3524     3532 1
    3678     3525     3526 1
    3679     3525     3635 1
    3680     3526     3527 1
    3681     3526     3530 1
    3682     3527     3528 1
    3683     3528     3529 1
    3684     3529     3530 1
    3685     3530     3531 1
    3686     3533     3534 1
    3687     3533     3549 1
    3688     3533     3550 1
    3689     3534     3535 1
    3690     3534     3551 1
    3691     3534     3552 1
    3692     3535     3536 1
    3693     3535     3553 1
    3694     3535     3554 1
    3695     3536     3537 1
    3696     3536     3555 1
    3697     3536     3556 1
    3698     3537     3538 1
    3699     3537     3557 1
    3700     3537     3558 1
    3701     3538     3539 1
    3702     3538     3559 1
    3703     3538     3560 1
    3704     3539     3540 1
    3705     3539     3561 1
    3706     3539     3562 1
    3707     3540     3541 1
    3708     3540     3563 1
    3709     3540     3564 1
    3710     3541     3542 1
    3711     3541     3565 1
    3712     3541     3566 1
    3713     3542     3543 1
    3714     3542     3567 1
    3715     3542     3568 1
    3716     3543     3544 1
    3717     3543     3569 1
    3718     3543     3570 1
    3719     3544     3545 1
    3720     3544     3571 1
    3721     3544     3572 1
    3722     3545     3546 1
    3723     3545     3573 1
    3724     3545     3574 1
    3725     3546     3547 1
    3726     3546     3575 1
    3727     3546     3576 1
    3728     3547     3548 1
    3729     3547     3577 1
    3730     3547     3578 1
    3731     3548     3579 1
    3732     3548     3580 1
    3733     3548     3581 1
    3734     3582     3583 1
    3735     3582     3598 1
    3736     3582     3599 1
    3737     3583     3584 1
    3738     3583     3600 1
    3739     3583     3601 1
    3740     3584     3585 1
    3741     3584     3602 1
    3742     3584     3603 1
    3743     3585     3586 1
    3744     3585     3604 1
    3745     3585     3605 1
    3746     3586     3587 1
    3747     3586     3606 1
    3748     3586     3607 1
    3749     3587     3588 1
    3750     3587     3608 1
    3751     3587     3609 1
    3752     3588     3589 1
    3753     3588     3610 1
    3754     3588     3611 1
    3755     3589     3590 1
    3756     3589     3612 1
    3757     3589     3613 1
    3758     3590     3591 1
    3759     3590     3614 1
    3760     3590     3615 1
    3761     3591     3592 1
    3762     3591     3616 1
    3763     3591     3617 1
    3764     3592     3593 1
    3765     3592     3618 1
    3766     3592     3619 1
    3767     3593     3594 1
    3768     3593     3620 1
    3769     3593     3621 1
    3770     3594     3595 1
    3771     3594     3622 1
    3772     3594     3623 1
    3773     3595     3596 1
    3774     3595     3624 1
    3775     3595     3625 1
    3776     3596     3597 1
    3777     3596     3626 1
    3778     3596     3627 1
    3779     3597     3628 1
    3780     3597     3629 1
    3781     3597     3630 1
    3782     3631     3632 1
    3783     3631     3638 1
    3784     3631     3654 1
    3785     3631     3703 1
    3786     3632     3633 1
    3787     3632     3636 1
    3788     3633     3634 1
    3789     3633     3637 1
    3790     3634     3635 1
    3791     3635     3636 1
    3792     3636     3642 1
    3793     3637     3638 1
    3794     3637     3641 1
    3795     3638     3639 1
    3796     3639     3640 1
    3797     3639     3643 1
    3798     3640     3641 1
    3799     3640     3652 1
    3800     3644     3645 1
    3801     3644     3652 1
    3802     3645     3646 1
    3803     3645     3653 1
    3804     3646     3647 1
    3805     3646     3756 1
    3806     3647     3648 1
    3807     3647     3651 1
    3808     3648     3649 1
    3809     3649     3650 1
    3810     3650     3651 1
    3811     3651     3652 1
    3812     3654     3655 1
    3813     3654     3670 1
    3814     3654     3671 1
    3815     3655     3656 1
    3816     3655     3672 1
    3817     3655     3673 1
    3818     3656     3657 1
    3819     3656     3674 1
    3820     3656     3675 1
    3821     3657     3658 1
    3822     3657     3676 1
    3823     3657     3677 1
    3824     3658     3659 1
    3825     3658     3678 1
    3826     3658     3679 1
    3827     3659     3660 1
    3828     3659     3680 1
    3829     3659     3681 1
    3830     3660     3661 1
    3831     3660     3682 1
    3832     3660     3683 1
    3833     3661     3662 1
    3834     3661     3684 1
    3835     3661     3685 1
    3836     3662     3663 1
    3837     3662     3686 1
    3838     3662     3687 1
    3839     3663     3664 1
    3840     3663     3688 1
    3841     3663     3689 1
    3842     3664     3665 1
    3843     3664     3690 1
    3844     3664     3691 1
    3845     3665     3666 1
    3846     3665     3692 1
    3847     3665     3693 1
    3848     3666     3667 1
    3849     3666     3694 1
    3850     3666     3695 1
    3851     3667     3668 1
    3852     3667     3696 1
    3853     3667     3697 1
    3854     3668     3669 1
    3855     3668     3698 1
    3856     3668     3699 1
    3857     3669     3700 1
    3858     3669     3701 1
    3859     3669     3702 1
    3860     3703     3704 1
    3861     3703     3719 1
    3862     3703     3720 1
    3863     3704     3705 1
    3864     3704     3721 1
    3865     3704     3722 1
    3866     3705     3706 1
    3867     3705     3723 1
    3868     3705     3724 1
    3869     3706     3707 1
    3870     3706     3725 1
    3871     3706     3726 1
    3872     3707     3708 1
    3873     3707     3727 1
    3874     3707     3728 1
    3875     3708     3709 1
    3876     3708     3729 1
    3877     3708     3730 1
    3878     3709     3710 1
    3879     3709     3731 1
    3880     3709     3732 1
    3881     3710     3711 1
    3882     3710     3733 1
    3883     3710     3734 1
    3884     3711     3712 1
    3885     3711     3735 1
    3886     3711     3736 1
    3887     3712     3713 1
    3888     3712     3737 1
    3889     3712     3738 1
    3890     3713     3714 1
    3891     3713     3739 1
    3892     3713     3740 1
    3893     3714     3715 1
    3894     3714     3741 1
    3895     3714     3742 1
    3896     3715     3716 1
    3897     3715     3743 1
    3898     3715     3744 1
    3899     3716     3717 1
    3900     3716     3745 1
    3901     3716     3746 1
    3902     3717     3718 1
    3903     3717     3747 1
    3904     3717     3748 1
    3905     3718     3749 1
    3906     3718     3750 1
    3907     3718     3751 1
    3908     3752     3753 1
    3909     3752     3759 1
    3910     3752     3775 1
    3911     3752     3824 1
    3912     3753     3754 1
    3913     3753     3757 1
    3914     3754     3755 1
    3915     3754     3758 1
    3916     3755     3756 1
    3917     3756     3757 1
    3918     3757     3763 1
    3919     3758     3759 1
    3920     3758     3762 1
    3921     3759     3760 1
    3922     3760     3761 1
    3923     3760     3764 1
    3924     3761     3762 1
    3925     3761     3773 1
    3926     3765     3766 1
    3927     3765     3773 1
    3928     3766     3767 1
    3929     3766     3774 1
    3930     3767     3768 1
    3931     3767     3877 1
    3932     3768     3769 1
    3933     3768     3772 1
    3934     3769     3770 1
    3935     3770     3771 1
    3936     3771     3772 1
    3937     3772     3773 1
    3938     3775     3776 1
    3939     3775     3791 1
    3940     3775     3792 1
    3941     3776     3777 1
    3942     3776     3793 1
    3943     3776     3794 1
    3944     3777     3778 1
    3945     3777     3795 1
    3946     3777     3796 1
    3947     3778     3779 1
    3948     3778     3797 1
    3949     3778     3798 1
    3950     3779     3780 1
    3951     3779     3799 1
    3952     3779     3800 1
    3953     3780     3781 1
    3954     3780     3801 1
    3955     3780     3802 1
    3956     3781     3782 1
    3957     3781     3803 1
    3958     3781     3804 1
    3959     3782     3783 1
    3960     3782     3805 1
    3961     3782     3806 1
    3962     3783     3784 1
    3963     3783     3807 1
    3964     3783     3808 1
    3965     3784     3785 1
    3966     3784     3809 1
    3967     3784     3810 1
    3968     3785     3786 1
    3969     3785     3811 1
    3970     3785     3812 1
    3971     3786     3787 1
    3972     3786     3813 1
    3973     3786     3814 1
    3974     3787     3788 1
    3975     3787     3815 1
    3976     3787     3816 1
    3977     3788     3789 1
    3978     3788     3817 1
    3979     3788     3818 1
    3980     3789     3790 1
    3981     3789     3819 1
    3982     3789     3820 1
    3983     3790     3821 1
    3984     3790     3822 1
    3985     3790     3823 1
    3986     3824     3825 1
    3987     3824     3840 1
    3988     3824     3841 1
    3989     3825     3826 1
    3990     3825     3842 1
    3991     3825     3843 1
    3992     3826     3827 1
    3993     3826     3844 1
    3994     3826     3845 1
    3995     3827     3828 1
    3996     3827     3846 1
    3997     3827     3847 1
    3998     3828     3829 1
    3999     3828     3848 1
    4000     3828     3849 1
    4001     3829     3830 1
    4002     3829     3850 1
    4003     3829     3851 1
    4004     3830     3831 1
    4005     3830     3852 1
    4006     3830     3853 1
    4007     3831     3832 1
    4008     3831     3854 1
    4009     3831     3855 1
    4010     3832     3833 1
    4011     3832     3856 1
    4012     3832     3857 1
    4013     3833     3834 1
    4014     3833     3858 1
    4015     3833     3859 1
    4016     3834     3835 1
    4017     3834     3860 1
    4018     3834     3861 1
    4019     3835     3836 1
    4020     3835     3862 1
    4021     3835     3863 1
    4022     3836     3837 1
    4023     3836     3864 1
    4024     3836     3865 1
    4025     3837     3838 1
    4026     3837     3866 1
    4027     3837     3867 1
    4028     3838     3839 1
    4029     3838     3868 1
    4030     3838     3869 1
    4031     3839     3870 1
    4032     3839     3871 1
    4033     3839     3872 1
    4034     3873     3874 1
    4035     3873     3880 1
    4036     3873     3896 1
    4037     3873     3945 1
    4038     3874     3875 1
    4039     3874     3878 1
    4040     3875     3876 1
    4041     3875     3879 1
    4042     3876     3877 1
    4043     3877     3878 1
    4044     3878     3884 1
    4045     3879     3880 1
    4046     3879     3883 1
    4047     3880     3881 1
    4048     3881     3882 1
    4049     3881     3885 1
    4050     3882     3883 1
    4051     3882     3894 1
    4052     3886     3887 1
    4053     3886     3894 1
    4054     3887     3888 1
    4055     3887     3895 1
    4056     3888     3889 1
    4057     3888     3998 1
    4058     3889     3890 1
    4059     3889     3893 1
    4060     3890     3891 1
    4061     3891     3892 1
    4062     3892     3893 1
    4063     3893     3894 1
    4064     3896     3897 1
    4065     3896     3912 1
    4066     3896     3913 1
    4067     3897     3898 1
    4068     3897     3914 1
    4069     3897     3915 1
    4070     3898     3899 1
    4071     3898     3916 1
    4072     3898     3917 1
    4073     3899     3900 1
    4074     3899     3918 1
    4075     3899     3919 1
    4076     3900     3901 1
    4077     3900     3920 1
    4078     3900     3921 1
    4079     3901     3902 1
    4080     3901     3922 1
    4081     3901     3923 1
    4082     3902     3903 1
    4083     3902     3924 1
    4084     3902     3925 1
    4085     3903     3904 1
    4086     3903     3926 1
    4087     3903     3927 1
    4088     3904     3905 1
    4089     3904     3928 1
    4090     3904     3929 1
    4091     3905     3906 1
    4092     3905     3930 1
    4093     3905     3931 1
    4094     3906     3907 1
    4095     3906     3932 1
    4096     3906     3933 1
    4097     3907     3908 1
    4098     3907     3934 1
    4099     3907     3935 1
    4100     3908     3909 1
    4101     3908     3936 1
    4102     3908     3937 1
    4103     3909     3910 1
    4104     3909     3938 1
    4105     3909     3939 1
    4106     3910     3911 1
    4107     3910     3940 1
    4108     3910     3941 1
    4109     3911     3942 1
    4110     3911     3943 1
    4111     3911     3944 1
    4112     3945     3946 1
    4113     3945     3961 1
    4114     3945     3962 1
    4115     3946     3947 1
    4116     3946     3963 1
    4117     3946     3964 1
    4118     3947     3948 1
    4119     3947     3965 1
    4120     3947     3966 1
    4121     3948     3949 1
    4122     3948     3967 1
    4123     3948     3968 1
    4124     3949     3950 1
    4125     3949     3969 1
    4126     3949     3970 1
    4127     3950     3951 1
    4128     3950     3971 1
    4129     3950     3972 1
    4130     3951     3952 1
    4131     3951     3973 1
    4132     3951     3974 1
    4133     3952     3953 1
    4134     3952     3975 1
    4135     3952     3976 1
    4136     3953     3954 1
    4137     3953     3977 1
    4138     3953     3978 1
    4139     3954     3955 1
    4140     3954     3979 1
    4141     3954     3980 1
    4142     3955     3956 1
    4143     3955     3981 1
    4144     3955     3982 1
    4145     3956     3957 1
    4146     3956     3983 1
    4147     3956     3984 1
    4148     3957     3958 1
    4149     3957     3985 1
    4150     3957     3986 1
    4151     3958     3959 1
    4152     3958     3987 1
    4153     3958     3988 1
    4154     3959     3960 1
    4155     3959     3989 1
    4156     3959     3990 1
    4157     3960     3991 1
    4158     3960     3992 1
    4159     3960     3993 1
    4160     3994     3995 1
    4161     3994     4001 1
    4162     3994     4017 1
    4163     3994     4066 1
    4164     3995     3996 1
    4165     3995     3999 1
    4166     3996     3997 1
    4167     3996     4000 1
    4168     3997     3998 1
    4169     3998     3999 1
    4170     3999     4005 1
    4171     4000     4001 1
    4172     4000     4004 1
    4173     4001     4002 1
    4174     4002     4003 1
    4175     4002     4006 1
    4176     4003     4004 1
    4177     4003     4015 1
    4178     4007     4008 1
    4179     4007     4015 1
    4180     4008     4009 1
    4181     4008     4016 1
    4182     4009     4010 1
    4183     4009     4119 1
    4184     4010     4011 1
    4185     4010     4014 1
    4186     4011     4012 1
    4187     4012     4013 1
    4188     4013     4014 1
    4189     4014     4015 1
    4190     4017     4018 1
    4191     4017     4033 1
    4192     4017     4034 1
    4193     4018     4019 1
    4194     4018     4035 1
    4195     4018     4036 1
    4196     4019     4020 1
    4197     4019     4037 1
    4198     4019     4038 1
    4199     4020     4021 1
    4200     4020     4039 1
    4201     4020     4040 1
    4202     4021     4022 1
    4203     4021     4041 1
    4204     4021     4042 1
    4205     4022     4023 1
    4206     4022     4043 1
    4207     4022     4044 1
    4208     4023     4024 1
    4209     4023     4045 1
    4210     4023     4046 1
    4211     4024     4025 1
    4212     4024     4047 1
    4213     4024     4048 1
    4214     4025     4026 1
    4215     4025     4049 1
    4216     4025     4050 1
    4217     4026     4027 1
    4218     4026     4051 1
    4219     4026     4052 1
    4220     4027     4028 1
    4221     4027     4053 1
    4222     4027     4054 1
    4223     4028     4029 1
    4224     4028     4055 1
    4225     4028     4056 1
    4226     4029     4030 1
    4227     4029     4057 1
    4228     4029     4058 1
    4229     4030     4031 1
    4230     4030     4059 1
    4231     4030     4060 1
    4232     4031     4032 1
    4233     4031     4061 1
    4234     4031     4062 1
    4235     4032     4063 1
    4236     4032     4064 1
    4237     4032     4065 1
    4238     4066     4067 1
    4239     4066     4082 1
    4240     4066     4083 1
    4241     4067     4068 1
    4242     4067     4084 1
    4243     4067     4085 1
    4244     4068     4069 1
    4245     4068     4086 1
    4246     4068     4087 1
    4247     4069     4070 1
    4248     4069     4088 1
    4249     4069     4089 1
    4250     4070     4071 1
    4251     4070     4090 1
    4252     4070     4091 1
    4253     4071     4072 1
    4254     4071     4092 1
    4255     4071     4093 1
    4256     4072     4073 1
    4257     4072     4094 1
    4258     4072     4095 1
    4259     4073     4074 1
    4260     4073     4096 1
    4261     4073     4097 1
    4262     4074     4075 1
    4263     4074     4098 1
    4264     4074     4099 1
    4265     4075     4076 1
    4266     4075     4100 1
    4267     4075     4101 1
    4268     4076     4077 1
    4269     4076     4102 1
    4270     4076     4103 1
    4271     4077     4078 1
    4272     4077     4104 1
    4273     4077     4105 1
    4274     4078     4079 1
    4275     4078     4106 1
    4276     4078     4107 1
    4277     4079     4080 1
    4278     4079     4108 1
    4279     4079     4109 1
    4280     4080     4081 1
    4281     4080     4110 1
    4282     4080     4111 1
    4283     4081     4112 1
    4284     4081     4113 1
    4285     4081     4114 1
    4286     4115     4116 1
    4287     4115     4122 1
    4288     4115     4138 1
    4289     4115     4187 1
    4290     4116     4117 1
    4291     4116     4120 1
    4292     4117     4118 1
    4293     4117     4121 1
    4294     4118     4119 1
    4295     4119     4120 1
    4296     4120     4126 1
    4297     4121     4122 1
    4298     4121     4125 1
    4299     4122     4123 1
    4300     4123     4124 1
    4301     4123     4127 1
    4302     4124     4125 1
    4303     4124     4136 1
    4304     4128     4129 1
    4305     4128     4136 1
    4306     4129     4130 1
    4307     4129     4137 1
    4308     4130     4131 1
    4309     4130     4240 1
    4310     4131     4132 1
    4311     4131     4135 1
    4312     4132     4133 1
    4313     4133     4134 1
    4314     4134     4135 1
    4315     4135     4136 1
    4316     4138     4139 1
    4317     4138     4154 1
    4318     4138     4155 1
    4319     4139     4140 1
    4320     4139     4156 1
    4321     4139     4157 1
    4322     4140     4141 1
    4323     4140     4158 1
    4324     4140     4159 1
    4325     4141     4142 1
    4326     4141     4160 1
    4327     4141     4161 1
    4328     4142     4143 1
    4329     4142     4162 1
    4330     4142     4163 1
    4331     4143     4144 1
    4332     4143     4164 1
    4333     4143     4165 1
    4334     4144     4145 1
    4335     4144     4166 1
    4336     4144     4167 1
    4337     4145     4146 1
    4338     4145     4168 1
    4339     4145     4169 1
    4340     4146     4147 1
    4341     4146     4170 1
    4342     4146     4171 1
    4343     4147     4148 1
    4344     4147     4172 1
    4345     4147     4173 1
    4346     4148     4149 1
    4347     4148     4174 1
    4348     4148     4175 1
    4349     4149     4150 1
    4350     4149     4176 1
    4351     4149     4177 1
    4352     4150     4151 1
    4353     4150     4178 1
    4354     4150     4179 1
    4355     4151     4152 1
    4356     4151     4180 1
    4357     4151     4181 1
    4358     4152     4153 1
    4359     4152     4182 1
    4360     4152     4183 1
    4361     4153     4184 1
    4362     4153     4185 1
    4363     4153     4186 1
    4364     4187     4188 1
    4365     4187     4203 1
    4366     4187     4204 1
    4367     4188     4189 1
    4368     4188     4205 1
    4369     4188     4206 1
    4370     4189     4190 1
    4371     4189     4207 1
    4372     4189     4208 1
    4373     4190     4191 1
    4374     4190     4209 1
    4375     4190     4210 1
    4376     4191     4192 1
    4377     4191     4211 1
    4378     4191     4212 1
    4379     4192     4193 1
    4380     4192     4213 1
    4381     4192     4214 1
    4382     4193     4194 1
    4383     4193     4215 1
    4384     4193     4216 1
    4385     4194     4195 1
    4386     4194     4217 1
    4387     4194     4218 1
    4388     4195     4196 1
    4389     4195     4219 1
    4390     4195     4220 1
    4391     4196     4197 1
    4392     4196     4221 1
    4393     4196     4222 1
    4394     4197     4198 1
    4395     4197     4223 1
    4396     4197     4224 1
    4397     4198     4199 1
    4398     4198     4225 1
    4399     4198     4226 1
    4400     4199     4200 1
    4401     4199     4227 1
    4402     4199     4228 1
    4403     4200     4201 1
    4404     4200     4229 1
    4405     4200     4230 1
    4406     4201     4202 1
    4407     4201     4231 1
    4408     4201     4232 1
    4409     4202     4233 1
    4410     4202     4234 1
    4411     4202     4235 1
    4412     4236     4237 1
    4413     4236     4243 1
    4414     4236     4259 1
    4415     4236     4308 1
    4416     4237     4238 1
    4417     4237     4241 1
    4418     4238     4239 1
    4419     4238     4242 1
    4420     4239     4240 1
    4421     4240     4241 1
    4422     4241     4247 1
    4423     4242     4243 1
    4424     4242     4246 1
    4425     4243     4244 1
    4426     4244     4245 1
    4427     4244     4248 1
    4428     4245     4246 1
    4429     4245     4257 1
    4430     4249     4250 1
    4431     4249     4257 1
    4432     4250     4251 1
    4433     4250     4258 1
    4434     4251     4252 1
    4435     4251     4361 1
    4436     4252     4253 1
    4437     4252     4256 1
    4438     4253     4254 1
    4439     4254     4255 1
    4440     4255     4256 1
    4441     4256     4257 1
    4442     4259     4260 1
    4443     4259     4275 1
    4444     4259     4276 1
    4445     4260     4261 1
    4446     4260     4277 1
    4447     4260     4278 1
    4448     4261     4262 1
    4449     4261     4279 1
    4450     4261     4280 1
    4451     4262     4263 1
    4452     4262     4281 1
    4453     4262     4282 1
    4454     4263     4264 1
    4455     4263     4283 1
    4456     4263     4284 1
    4457     4264     4265 1
    4458     4264     4285 1
    4459     4264     4286 1
    4460     4265     4266 1
    4461     4265     4287 1
    4462     4265     4288 1
    4463     4266     4267 1
    4464     4266     4289 1
    4465     4266     4290 1
    4466     4267     4268 1
    4467     4267     4291 1
    4468     4267     4292 1
    4469     4268     4269 1
    4470     4268     4293 1
    4471     4268     4294 1
    4472     4269     4270 1
    4473     4269     4295 1
    4474     4269     4296 1
    4475     4270     4271 1
    4476     4270     4297 1
    4477     4270     4298 1
    4478     4271     4272 1
    4479     4271     4299 1
    4480     4271     4300 1
    4481     4272     4273 1
    4482     4272     4301 1
    4483     4272     4302 1
    4484     4273     4274 1
    4485     4273     4303 1
    4486     4273     4304 1
    4487     4274     4305 1
    4488     4274     4306 1
    4489     4274     4307 1
    4490     4308     4309 1
    4491     4308     4324 1
    4492     4308     4325 1
    4493     4309     4310 1
    4494     4309     4326 1
    4495     4309     4327 1
    4496     4310     4311 1
    4497     4310     4328 1
    4498     4310     4329 1
    4499     4311     4312 1
    4500     4311     4330 1
    4501     4311     4331 1
    4502     4312     4313 1
    4503     4312     4332 1
    4504     4312     4333 1
    4505     4313     4314 1
    4506     4313     4334 1
    4507     4313     4335 1
    4508     4314     4315 1
    4509     4314     4336 1
    4510     4314     4337 1
    4511     4315     4316 1
    4512     4315     4338 1
    4513     4315     4339 1
    4514     4316     4317 1
    4515     4316     4340 1
    4516     4316     4341 1
    4517     4317     4318 1
    4518     4317     4342 1
    4519     4317     4343 1
    4520     4318     4319 1
    4521     4318     4344 1
    4522     4318     4345 1
    4523     4319     4320 1
    4524     4319     4346 1
    4525     4319     4347 1
    4526     4320     4321 1
    4527     4320     4348 1
    4528     4320     4349 1
    4529     4321     4322 1
    4530     4321     4350 1
    4531     4321     4351 1
    4532     4322     4323 1
    4533     4322     4352 1
    4534     4322     4353 1
    4535     4323     4354 1
    4536     4323     4355 1
    4537     4323     4356 1
    4538     4357     4358 1
    4539     4357     4364 1
    4540     4357     4380 1
    4541     4357     4429 1
    4542     4358     4359 1
    4543     4358     4362 1
    4544     4359     4360 1
    4545     4359     4363 1
    4546     4360     4361 1
    4547     4361     4362 1
    4548     4362     4368 1
    4549     4363     4364 1
    4550     4363     4367 1
    4551     4364     4365 1
    4552     4365     4366 1
    4553     4365     4369 1
    4554     4366     4367 1
    4555     4366     4378 1
    4556     4370     4371 1
    4557     4370     4378 1
    4558     4371     4372 1
    4559     4371     4379 1
    4560     4372     4373 1
    4561     4372     4482 1
    4562     4373     4374 1
    4563     4373     4377 1
    4564     4374     4375 1
    4565     4375     4376 1
    4566     4376     4377 1
    4567     4377     4378 1
    4568     4380     4381 1
    4569     4380     4396 1
    4570     4380     4397 1
    4571     4381     4382 1
    4572     4381     4398 1
    4573     4381     4399 1
    4574     4382     4383 1
    4575     4382     4400 1
    4576     4382     4401 1
    4577     4383     4384 1
    4578     4383     4402 1
    4579     4383     4403 1
    4580     4384     4385 1
    4581     4384     4404 1
    4582     4384     4405 1
    4583     4385     4386 1
    4584     4385     4406 1
    4585     4385     4407 1
    4586     4386     4387 1
    4587     4386     4408 1
    4588     4386     4409 1
    4589     4387     4388 1
    4590     4387     4410 1
    4591     4387     4411 1
    4592     4388     4389 1
    4593     4388     4412 1
    4594     4388     4413 1
    4595     4389     4390 1
    4596     4389     4414 1
    4597     4389     4415 1
    4598     4390     4391 1
    4599     4390     4416 1
    4600     4390     4417 1
    4601     4391     4392 1
    4602     4391     4418 1
    4603     4391     4419 1
    4604     4392     4393 1
    4605     4392     4420 1
    4606     4392     4421 1
    4607     4393     4394 1
    4608     4393     4422 1
    4609     4393     4423 1
    4610     4394     4395 1
    4611     4394     4424 1
    4612     4394     4425 1
    4613     4395     4426 1
    4614     4395     4427 1
    4615     4395     4428 1
    4616     4429     4430 1
    4617     4429     4445 1
    4618     4429     4446 1
    4619     4430     4431 1
    4620     4430     4447 1
    4621     4430     4448 1
    4622     4431     4432 1
    4623     4431     4449 1
    4624     4431     4450 1
    4625     4432     4433 1
    4626     4432     4451 1
    4627     4432     4452 1
    4628     4433     4434 1
    4629     4433     4453 1
    4630     4433     4454 1
    4631     4434     4435 1
    4632     4434     4455 1
    4633     4434     4456 1
    4634     4435     4436 1
    4635     4435     4457 1
    4636     4435     4458 1
    4637     4436     4437 1
    4638     4436     4459 1
    4639     4436     4460 1
    4640     4437     4438 1
    4641     4437     4461 1
    4642     4437     4462 1
    4643     4438     4439 1
    4644     4438     4463 1
    4645     4438     4464 1
    4646     4439     4440 1
    4647     4439     4465 1
    4648     4439     4466 1
    4649     4440     4441 1
    4650     4440     4467 1
    4651     4440     4468 1
    4652     4441     4442 1
    4653     4441     4469 1
    4654     4441     4470 1
    4655     4442     4443 1
    4656     4442     4471 1
    4657     4442     4472 1
    4658     4443     4444 1
    4659     4443     4473 1
    4660     4443     4474 1
    4661     4444     4475 1
    4662     4444     4476 1
    4663     4444     4477 1
    4664     4478     4479 1
    4665     4478     4485 1
    4666     4478     4501 1
    4667     4478     4550 1
    4668     4479     4480 1
    4669     4479     4483 1
    4670     4480     4481 1
    4671     4480     4484 1
    4672     4481     4482 1
    4673     4482     4483 1
    4674     4483     4489 1
    4675     4484     4485 1
    4676     4484     4488 1
    4677     4485     4486 1
    4678     4486     4487 1
    4679     4486     4490 1
    4680     4487     4488 1
    4681     4487     4499 1
    4682     4491     4492 1
    4683     4491     4499 1
    4684     4492     4493 1
    4685     4492     4500 1
    4686     4493     4494 1
    4687     4493     4603 1
    4688     4494     4495 1
    4689     4494     4498 1
    4690     4495     4496 1
    4691     4496     4497 1
    4692     4497     4498 1
    4693     4498     4499 1
    4694     4501     4502 1
    4695     4501     4517 1
    4696     4501     4518 1
    4697     4502     4503 1
    4698     4502     4519 1
    4699     4502     4520 1
    4700     4503     4504 1
    4701     4503     4521 1
    4702     4503     4522 1
    4703     4504     4505 1
    4704     4504     4523 1
    4705     4504     4524 1
    4706     4505     4506 1
    4707     4505     4525 1
    4708     4505     4526 1
    4709     4506     4507 1
    4710     4506     4527 1
    4711     4506     4528 1
    4712     4507     4508 1
    4713     4507     4529 1
    4714     4507     4530 1
    4715     4508     4509 1
    4716     4508     4531 1
    4717     4508     4532 1
    4718     4509     4510 1
    4719     4509     4533 1
    4720     4509     4534 1
    4721     4510     4511 1
    4722     4510     4535 1
    4723     4510     4536 1
    4724     4511     4512 1
    4725     4511     4537 1
    4726     4511     4538 1
    4727     4512     4513 1
    4728     4512     4539 1
    4729     4512     4540 1
    4730     4513     4514 1
    4731     4513     4541 1
    4732     4513     4542 1
    4733     4514     4515 1
    4734     4514     4543 1
    4735     4514     4544 1
    4736     4515     4516 1
    4737     4515     4545 1
    4738     4515     4546 1
    4739     4516     4547 1
    4740     4516     4548 1
    4741     4516     4549 1
    4742     4550     4551 1
    4743     4550     4566 1
    4744     4550     4567 1
    4745     4551     4552 1
    4746     4551     4568 1
    4747     4551     4569 1
    4748     4552     4553 1
    4749     4552     4570 1
    4750     4552     4571 1
    4751     4553     4554 1
    4752     4553     4572 1
    4753     4553     4573 1
    4754     4554     4555 1
    4755     4554     4574 1
    4756     4554     4575 1
    4757     4555     4556 1
    4758     4555     4576 1
    4759     4555     4577 1
    4760     4556     4557 1
    4761     4556     4578 1
    4762     4556     4579 1
    4763     4557     4558 1
    4764     4557     4580 1
    4765     4557     4581 1
    4766     4558     4559 1
    4767     4558     4582 1
    4768     4558     4583 1
    4769     4559     4560 1
    4770     4559     4584 1
    4771     4559     4585 1
    4772     4560     4561 1
    4773     4560     4586 1
    4774     4560     4587 1
    4775     4561     4562 1
    4776     4561     4588 1
    4777     4561     4589 1
    4778     4562     4563 1
    4779     4562     4590 1
    4780     4562     4591 1
    4781     4563     4564 1
    4782     4563     4592 1
    4783     4563     4593 1
    4784     4564     4565 1
    4785     4564     4594 1
    4786     4564     4595 1
    4787     4565     4596 1
    4788     4565     4597 1
    4789     4565     4598 1
    4790     4599     4600 1
    4791     4599     4606 1
    4792     4599     4622 1
    4793     4599     4671 1
    4794     4600     4601 1
    4795     4600     4604 1
    4796     4601     4602 1
    4797     4601     4605 1
    4798     4602     4603 1
    4799     4603     4604 1
    4800     4604     4610 1
    4801     4605     4606 1
    4802     4605     4609 1
    4803     4606     4607 1
    4804     4607     4608 1
    4805     4607     4611 1
    4806     4608     4609 1
    4807     4608     4620 1
    4808     4612     4613 1
    4809     4612     4620 1
    4810     4613     4614 1
    4811     4613     4621 1
    4812     4614     4615 1
    4813     4614     4724 1
    4814     4615     4616 1
    4815     4615     4619 1
    4816     4616     4617 1
    4817     4617     4618 1
    4818     4618     4619 1
    4819     4619     4620 1
    4820     4622     4623 1
    4821     4622     4638 1
    4822     4622     4639 1
    4823     4623     4624 1
    4824     4623     4640 1
    4825     4623     4641 1
    4826     4624     4625 1
    4827     4624     4642 1
    4828     4624     4643 1
    4829     4625     4626 1
    4830     4625     4644 1
    4831     4625     4645 1
    4832     4626     4627 1
    4833     4626     4646 1
    4834     4626     4647 1
    4835     4627     4628 1
    4836     4627     4648 1
    4837     4627     4649 1
    4838     4628     4629 1
    4839     4628     4650 1
    4840     4628     4651 1
    4841     4629     4630 1
    4842     4629     4652 1
    4843     4629     4653 1
    4844     4630     4631 1
    4845     4630     4654 1
    4846     4630     4655 1
    4847     4631     4632 1
    4848     4631     4656 1
    4849     4631     4657 1
    4850     4632     4633 1
    4851     4632     4658 1
    4852     4632     4659 1
    4853     4633     4634 1
    4854     4633     4660 1
    4855     4633     4661 1
    4856     4634     4635 1
    4857     4634     4662 1
    4858     4634     4663 1
    4859     4635     4636 1
    4860     4635     4664 1
    4861     4635     4665 1
    4862     4636     4637 1
    4863     4636     4666 1
    4864     4636     4667 1
    4865     4637     4668 1
    4866     4637     4669 1
    4867     4637     4670 1
    4868     4671     4672 1
    4869     4671     4687 1
    4870     4671     4688 1
    4871     4672     4673 1
    4872     4672     4689 1
    4873     4672     4690 1
    4874     4673     4674 1
    4875     4673     4691 1
    4876     4673     4692 1
    4877     4674     4675 1
    4878     4674     4693 1
    4879     4674     4694 1
    4880     4675     4676 1
    4881     4675     4695 1
    4882     4675     4696 1
    4883     4676     4677 1
    4884     4676     4697 1
    4885     4676     4698 1
    4886     4677     4678 1
    4887     4677     4699 1
    4888     4677     4700 1
    4889     4678     4679 1
    4890     4678     4701 1
    4891     4678     4702 1
    4892     4679     4680 1
    4893     4679     4703 1
    4894     4679     4704 1
    4895     4680     4681 1
    4896     4680     4705 1
    4897     4680     4706 1
    4898     4681     4682 1
    4899     4681     4707 1
    4900     4681     4708 1
    4901     4682     4683 1
    4902     4682     4709 1
    4903     4682     4710 1
    4904     4683     4684 1
    4905     4683     4711 1
    4906     4683     4712 1
    4907     4684     4685 1
    4908     4684     4713 1
    4909     4684     4714 1
    4910     4685     4686 1
    4911     4685     4715 1
    4912     4685     4716 1
    4913     4686     4717 1
    4914     4686     4718 1
    4915     4686     4719 1
    4916     4720     4721 1
    4917     4720     4727 1
    4918     4720     4743 1
    4919     4720     4792 1
    4920     4721     4722 1
    4921     4721     4725 1
    4922     4722     4723 1
    4923     4722     4726 1
    4924     4723     4724 1
    4925     4724     4725 1
    4926     4725     4731 1
    4927     4726     4727 1
    4928     4726     4730 1
    4929     4727     4728 1
    4930     4728     4729 1
    4931     4728     4732 1
    4932     4729     4730 1
    4933     4729     4741 1
    4934     4733     4734 1
    4935     4733     4741 1
    4936     4734     4735 1
    4937     4734     4742 1
    4938     4735     4736 1
    4939     4735     4845 1
    4940     4736     4737 1
    4941     4736     4740 1
    4942     4737     4738 1
    4943     4738     4739 1
    4944     4739     4740 1
    4945     4740     4741 1
    4946     4743     4744 1
    4947     4743     4759 1
    4948     4743     4760 1
    4949     4744     4745 1
    4950     4744     4761 1
    4951     4744     4762 1
    4952     4745     4746 1
    4953     4745     4763 1
    4954     4745     4764 1
    4955     4746     4747 1
    4956     4746     4765 1
    4957     4746     4766 1
    4958     4747     4748 1
    4959     4747     4767 1
    4960     4747     4768 1
    4961     4748     4749 1
    4962     4748     4769 1
    4963     4748     4770 1
    4964     4749     4750 1
    4965     4749     4771 1
    4966     4749     4772 1
    4967     4750     4751 1
    4968     4750     4773 1
    4969     4750     4774 1
    4970     4751     4752 1
    4971     4751     4775 1
    4972     4751     4776 1
    4973     4752     4753 1
    4974     4752     4777 1
    4975     4752     4778 1
    4976     4753     4754 1
    4977     4753     4779 1
    4978     4753     4780 1
    4979     4754     4755 1
    4980     4754     4781 1
    4981     4754     4782 1
    4982     4755     4756 1
    4983     4755     4783 1
    4984     4755     4784 1
    4985     4756     4757 1
    4986     4756     4785 1
    4987     4756     4786 1
    4988     4757     4758 1
    4989     4757     4787 1
    4990     4757     4788 1
    4991     4758     4789 1
    4992     4758     4790 1
    4993     4758     4791 1
    4994     4792     4793 1
    4995     4792     4808 1
    4996     4792     4809 1
    4997     4793     4794 1
    4998     4793     4810 1
    4999     4793     4811 1
    5000     4794     4795 1
    5001     4794     4812 1
    5002     4794     4813 1
    5003     4795     4796 1
    5004     4795     4814 1
    5005     4795     4815 1
    5006     4796     4797 1
    5007     4796     4816 1
    5008     4796     4817 1
    5009     4797     4798 1
    5010     4797     4818 1
    5011     4797     4819 1
    5012     4798     4799 1
    5013     4798     4820 1
    5014     4798     4821 1
    5015     4799     4800 1
    5016     4799     4822 1
    5017     4799     4823 1
    5018     4800     4801 1
    5019     4800     4824 1
    5020     4800     4825 1
    5021     4801     4802 1
    5022     4801     4826 1
    5023     4801     4827 1
    5024     4802     4803 1
    5025     4802     4828 1
    5026     4802     4829 1
    5027     4803     4804 1
    5028     4803     4830 1
    5029     4803     4831 1
    5030     4804     4805 1
    5031     4804     4832 1
    5032     4804     4833 1
    5033     4805     4806 1
    5034     4805     4834 1
    5035     4805     4835 1
    5036     4806     4807 1
    5037     4806     4836 1
    5038     4806     4837 1
    5039     4807     4838 1
    5040     4807     4839 1
    5041     4807     4840 1
    5042     4841     4842 1
    5043     4841     4848 1
    5044     4841     4864 1
    5045     4841     4913 1
    5046     4842     4843 1
    5047     4842     4846 1
    5048     4843     4844 1
    5049     4843     4847 1
    5050     4844     4845 1
    5051     4845     4846 1
    5052     4846     4852 1
    5053     4847     4848 1
    5054     4847     4851 1
    5055     4848     4849 1
    5056     4849     4850 1
    5057     4849     4853 1
    5058     4850     4851 1
    5059     4850     4862 1
    5060     4854     4855 1
    5061     4854     4862 1
    5062     4855     4856 1
    5063     4855     4863 1
    5064     4856     4857 1
    5065     4856     4966 1
    5066     4857     4858 1
    5067     4857     4861 1
    5068     4858     4859 1
    5069     4859     4860 1
    5070     4860     4861 1
    5071     4861     4862 1
    5072     4864     4865 1
    5073     4864     4880 1
    5074     4864     4881 1
    5075     4865     4866 1
    5076     4865     4882 1
    5077     4865     4883 1
    5078     4866     4867 1
    5079     4866     4884 1
    5080     4866     4885 1
    5081     4867     4868 1
    5082     4867     4886 1
    5083     4867     4887 1
    5084     4868     4869 1
    5085     4868     4888 1
    5086     4868     4889 1
    5087     4869     4870 1
    5088     4869     4890 1
    5089     4869     4891 1
    5090     4870     4871 1
    5091     4870     4892 1
    5092     4870     4893 1
    5093     4871     4872 1
    5094     4871     4894 1
    5095     4871     4895 1
    5096     4872     4873 1
    5097     4872     4896 1
    5098     4872     4897 1
    5099     4873     4874 1
    5100     4873     4898 1
    5101     4873     4899 1
    5102     4874     4875 1
    5103     4874     4900 1
    5104     4874     4901 1
    5105     4875     4876 1
    5106     4875     4902 1
    5107     4875     4903 1
    5108     4876     4877 1
    5109     4876     4904 1
    5110     4876     4905 1
    5111     4877     4878 1
    5112     4877     4906 1
    5113     4877     4907 1
    5114     4878     4879 1
    5115     4878     4908 1
    5116     4878     4909 1
    5117     4879     4910 1
    5118     4879     4911 1
    5119     4879     4912 1
    5120     4913     4914 1
    5121     4913     4929 1
    5122     4913     4930 1
    5123     4914     4915 1
    5124     4914     4931 1
    5125     4914     4932 1
    5126     4915     4916 1
    5127     4915     4933 1
    5128     4915     4934 1
    5129     4916     4917 1
    5130     4916     4935 1
    5131     4916     4936 1
    5132     4917     4918 1
    5133     4917     4937 1
    5134     4917     4938 1
    5135     4918     4919 1
    5136     4918     4939 1
    5137     4918     4940 1
    5138     4919     4920 1
    5139     4919     4941 1
    5140     4919     4942 1
    5141     4920     4921 1
    5142     4920     4943 1
    5143     4920     4944 1
    5144     4921     4922 1
    5145     4921     4945 1
    5146     4921     4946 1
    5147     4922     4923 1
    5148     4922     4947 1
    5149     4922     4948 1
    5150     4923     4924 1
    5151     4923     4949 1
    5152     4923     4950 1
    5153     4924     4925 1
    5154     4924     4951 1
    5155     4924     4952 1
    5156     4925     4926 1
    5157     4925     4953 1
    5158     4925     4954 1
    5159     4926     4927 1
    5160     4926     4955 1
    5161     4926     4956 1
    5162     4927     4928 1
    5163     4927     4957 1
    5164     4927     4958 1
    5165     4928     4959 1
    5166     4928     4960 1
    5167     4928     4961 1
    5168     4962     4963 1
    5169     4962     4969 1
    5170     4962     4985 1
    5171     4962     5034 1
    5172     4963     4964 1
    5173     4963     4967 1
    5174     4964     4965 1
    5175     4964     4968 1
    5176     4965     4966 1
    5177     4966     4967 1
    5178     4967     4973 1
    5179     4968     4969 1
    5180     4968     4972 1
    5181     4969     4970 1
    5182     4970     4971 1
    5183     4970     4974 1
    5184     4971     4972 1
    5185     4971     4983 1
    5186     4975     4976 1
    5187     4975     4983 1
    5188     4976     4977 1
    5189     4976     4984 1
    5190     4977     4978 1
    5191     4977     5087 1
    5192     4978     4979 1
    5193     4978     4982 1
    5194     4979     4980 1
    5195     4980     4981 1
    5196     4981     4982 1
    5197     4982     4983 1
    5198     4985     4986 1
    5199     4985     5001 1
    5200     4985     5002 1
    5201     4986     4987 1
    5202     4986     5003 1
    5203     4986     5004 1
    5204     4987     4988 1
    5205     4987     5005 1
    5206     4987     5006 1
    5207     4988     4989 1
    5208     4988     5007 1
    5209     4988     5008 1
    5210     4989     4990 1
    5211     4989     5009 1
    5212     4989     5010 1
    5213     4990     4991 1
    5214     4990     5011 1
    5215     4990     5012 1
    5216     4991     4992 1
    5217     4991     5013 1
    5218     4991     5014 1
    5219     4992     4993 1
    5220     4992     5015 1
    5221     4992     5016 1
    5222     4993     4994 1
    5223     4993     5017 1
    5224     4993     5018 1
    5225     4994     4995 1
    5226     4994     5019 1
    5227     4994     5020 1
    5228     4995     4996 1
    5229     4995     5021 1
    5230     4995     5022 1
    5231     4996     4997 1
    5232     4996     5023 1
    5233     4996     5024 1
    5234     4997     4998 1
    5235     4997     5025 1
    5236     4997     5026 1
    5237     4998     4999 1
    5238     4998     5027 1
    5239     4998     5028 1
    5240     4999     5000 1
    5241     4999     5029 1
    5242     4999     5030 1
    5243     5000     5031 1
    5244     5000     5032 1
    5245     5000     5033 1
    5246     5034     5035 1
    5247     5034     5050 1
    5248     5034     5051 1
    5249     5035     5036 1
    5250     5035     5052 1
    5251     5035     5053 1
    5252     5036     5037 1
    5253     5036     5054 1
    5254     5036     5055 1
    5255     5037     5038 1
    5256     5037     5056 1
    5257     5037     5057 1
    5258     5038     5039 1
    5259     5038     5058 1
    5260     5038     5059 1
    5261     5039     5040 1
    5262     5039     5060 1
    5263     5039     5061 1
    5264     5040     5041 1
    5265     5040     5062 1
    5266     5040     5063 1
    5267     5041     5042 1
    5268     5041     5064 1
    5269     5041     5065 1
    5270     5042     5043 1
    5271     5042     5066 1
    5272     5042     5067 1
    5273     5043     5044 1
    5274     5043     5068 1
    5275     5043     5069 1
    5276     5044     5045 1
    5277     5044     5070 1
    5278     5044     5071 1
    5279     5045     5046 1
    5280     5045     5072 1
    5281     5045     5073 1
    5282     5046     5047 1
    5283     5046     5074 1
    5284     5046     5075 1
    5285     5047     5048 1
    5286     5047     5076 1
    5287     5047     5077 1
    5288     5048     5049 1
    5289     5048     5078 1
    5290     5048     5079 1
    5291     5049     5080 1
    5292     5049     5081 1
    5293     5049     5082 1
    5294     5083     5084 1
    5295     5083     5090 1
    5296     5083     5106 1
    5297     5083     5155 1
    5298     5084     5085 1
    5299     5084     5088 1
    5300     5085     5086 1
    5301     5085     5089 1
    5302     5086     5087 1
    5303     5087     5088 1
    5304     5088     5094 1
    5305     5089     5090 1
    5306     5089     5093 1
    5307     5090     5091 1
    5308     5091     5092 1
    5309     5091     5095 1
    5310     5092     5093 1
    5311     5092     5104 1
    5312     5096     5097 1
    5313     5096     5104 1
    5314     5097     5098 1
    5315     5097     5105 1
    5316     5098     5099 1
    5317     5098     5208 1
    5318     5099     5100 1
    5319     5099     5103 1
    5320     5100     5101 1
    5321     5101     5102 1
    5322     5102     5103 1
    5323     5103     5104 1
    5324     5106     5107 1
    5325     5106     5122 1
    5326     5106     5123 1
    5327     5107     5108 1
    5328     5107     5124 1
    5329     5107     5125 1
    5330     5108     5109 1
    5331     5108     5126 1
    5332     5108     5127 1
    5333     5109     5110 1
    5334     5109     5128 1
    5335     5109     5129 1
    5336     5110     5111 1
    5337     5110     5130 1
    5338     5110     5131 1
    5339     5111     5112 1
    5340     5111     5132 1
    5341     5111     5133 1
    5342     5112     5113 1
    5343     5112     5134 1
    5344     5112     5135 1
    5345     5113     5114 1
    5346     5113     5136 1
    5347     5113     5137 1
    5348     5114     5115 1
    5349     5114     5138 1
    5350     5114     5139 1
    5351     5115     5116 1
    5352     5115     5140 1
    5353     5115     5141 1
    5354     5116     5117 1
    5355     5116     5142 1
    5356     5116     5143 1
    5357     5117     5118 1
    5358     5117     5144 1
    5359     5117     5145 1
    5360     5118     5119 1
    5361     5118     5146 1
    5362     5118     5147 1
    5363     5119     5120 1
    5364     5119     5148 1
    5365     5119     5149 1
    5366     5120     5121 1
    5367     5120     5150 1
    5368     5120     5151 1
    5369     5121     5152 1
    5370     5121     5153 1
    5371     5121     5154 1
    5372     5155     5156 1
    5373     5155     5171 1
    5374     5155     5172 1
    5375     5156     5157 1
    5376     5156     5173 1
    5377     5156     5174 1
    5378     5157     5158 1
    5379     5157     5175 1
    5380     5157     5176 1
    5381     5158     5159 1
    5382     5158     5177 1
    5383     5158     5178 1
    5384     5159     5160 1
    5385     5159     5179 1
    5386     5159     5180 1
    5387     5160     5161 1
    5388     5160     5181 1
    5389     5160     5182 1
    5390     5161     5162 1
    5391     5161     5183 1
    5392     5161     5184 1
    5393     5162     5163 1
    5394     5162     5185 1
    5395     5162     5186 1
    5396     5163     5164 1
    5397     5163     5187 1
    5398     5163     5188 1
    5399     5164     5165 1
    5400     5164     5189 1
    5401     5164     5190 1
    5402     5165     5166 1
    5403     5165     5191 1
    5404     5165     5192 1
    5405     5166     5167 1
    5406     5166     5193 1
    5407     5166     5194 1
    5408     5167     5168 1
    5409     5167     5195 1
    5410     5167     5196 1
    5411     5168     5169 1
    5412     5168     5197 1
    5413     5168     5198 1
    5414     5169     5170 1
    5415     5169     5199 1
    5416     5169     5200 1
    5417     5170     5201 1
    5418     5170     5202 1
    5419     5170     5203 1
    5420     5204     5205 1
    5421     5204     5211 1
    5422     5204     5227 1
    5423     5204     5276 1
    5424     5205     5206 1
    5425     5205     5209 1
    5426     5206     5207 1
    5427     5206     5210 1
    5428     5207     5208 1
    5429     5208     5209 1
    5430     5209     5215 1
    5431     5210     5211 1
    5432     5210     5214 1
    5433     5211     5212 1
    5434     5212     5213 1
    5435     5212     5216 1
    5436     5213     5214 1
    5437     5213     5225 1
    5438     5217     5218 1
    5439     5217     5225 1
    5440     5218     5219 1
    5441     5218     5226 1
    5442     5219     5220 1
    5443     5219     5329 1
    5444     5220     5221 1
    5445     5220     5224 1
    5446     5221     5222 1
    5447     5222     5223 1
    5448     5223     5224 1
    5449     5224     5225 1
    5450     5227     5228 1
    5451     5227     5243 1
    5452     5227     5244 1
    5453     5228     5229 1
    5454     5228     5245 1
    5455     5228     5246 1
    5456     5229     5230 1
    5457     5229     5247 1
    5458     5229     5248 1
    5459     5230     5231 1
    5460     5230     5249 1
    5461     5230     5250 1
    5462     5231     5232 1
    5463     5231     5251 1
    5464     5231     5252 1
    5465     5232     5233 1
    5466     5232     5253 1
    5467     5232     5254 1
    5468     5233     5234 1
    5469     5233     5255 1
    5470     5233     5256 1
    5471     5234     5235 1
    5472     5234     5257 1
    5473     5234     5258 1
    5474     5235     5236 1
    5475     5235     5259 1
    5476     5235     5260 1
    5477     5236     5237 1
    5478     5236     5261 1
    5479     5236     5262 1
    5480     5237     5238 1
    5481     5237     5263 1
    5482     5237     5264 1
    5483     5238     5239 1
    5484     5238     5265 1
    5485     5238     5266 1
    5486     5239     5240 1
    5487     5239     5267 1
    5488     5239     5268 1
    5489     5240     5241 1
    5490     5240     5269 1
    5491     5240     5270 1
    5492     5241     5242 1
    5493     5241     5271 1
    5494     5241     5272 1
    5495     5242     5273 1
    5496     5242     5274 1
    5497     5242     5275 1
    5498     5276     5277 1
    5499     5276     5292 1
    5500     5276     5293 1
    5501     5277     5278 1
    5502     5277     5294 1
    5503     5277     5295 1
    5504     5278     5279 1
    5505     5278     5296 1
    5506     5278     5297 1
    5507     5279     5280 1
    5508     5279     5298 1
    5509     5279     5299 1
    5510     5280     5281 1
    5511     5280     5300 1
    5512     5280     5301 1
    5513     5281     5282 1
    5514     5281     5302 1
    5515     5281     5303 1
    5516     5282     5283 1
    5517     5282     5304 1
    5518     5282     5305 1
    5519     5283     5284 1
    5520     5283     5306 1
    5521     5283     5307 1
    5522     5284     5285 1
    5523     5284     5308 1
    5524     5284     5309 1
    5525     5285     5286 1
    5526     5285     5310 1
    5527     5285     5311 1
    5528     5286     5287 1
    5529     5286     5312 1
    5530     5286     5313 1
    5531     5287     5288 1
    5532     5287     5314 1
    5533     5287     5315 1
    5534     5288     5289 1
    5535     5288     5316 1
    5536     5288     5317 1
    5537     5289     5290 1
    5538     5289     5318 1
    5539     5289     5319 1
    5540     5290     5291 1
    5541     5290     5320 1
    5542     5290     5321 1
    5543     5291     5322 1
    5544     5291     5323 1
    5545     5291     5324 1
    5546     5325     5326 1
    5547     5325     5332 1
    5548     5325     5348 1
    5549     5325     5397 1
    5550     5326     5327 1
    5551     5326     5330 1
    5552     5327     5328 1
    5553     5327     5331 1
    5554     5328     5329 1
    5555     5329     5330 1
    5556     5330     5336 1
    5557     5331     5332 1
    5558     5331     5335 1
    5559     5332     5333 1
    5560     5333     5334 1
    5561     5333     5337 1
    5562     5334     5335 1
    5563     5334     5346 1
    5564     5338     5339 1
    5565     5338     5346 1
    5566     5339     5340 1
    5567     5339     5347 1
    5568     5340     5341 1
    5569     5340     5450 1
    5570     5341     5342 1
    5571     5341     5345 1
    5572     5342     5343 1
    5573     5343     5344 1
    5574     5344     5345 1
    5575     5345     5346 1
    5576     5348     5349 1
    5577     5348     5364 1
    5578     5348     5365 1
    5579     5349     5350 1
    5580     5349     5366 1
    5581     5349     5367 1
    5582     5350     5351 1
    5583     5350     5368 1
    5584     5350     5369 1
    5585     5351     5352 1
    5586     5351     5370 1
    5587     5351     5371 1
    5588     5352     5353 1
    5589     5352     5372 1
    5590     5352     5373 1
    5591     5353     5354 1
    5592     5353     5374 1
    5593     5353     5375 1
    5594     5354     5355 1
    5595     5354     5376 1
    5596     5354     5377 1
    5597     5355     5356 1
    5598     5355     5378 1
    5599     5355     5379 1
    5600     5356     5357 1
    5601     5356     5380 1
    5602     5356     5381 1
    5603     5357     5358 1
    5604     5357     5382 1
    5605     5357     5383 1
    5606     5358     5359 1
    5607     5358     5384 1
    5608     5358     5385 1
    5609     5359     5360 1
    5610     5359     5386 1
    5611     5359     5387 1
    5612     5360     5361 1
    5613     5360     5388 1
    5614     5360     5389 1
    5615     5361     5362 1
    5616     5361     5390 1
    5617     5361     5391 1
    5618     5362     5363 1
    5619     5362     5392 1
    5620     5362     5393 1
    5621     5363     5394 1
    5622     5363     5395 1
    5623     5363     5396 1
    5624     5397     5398 1
    5625     5397     5413 1
    5626     5397     5414 1
    5627     5398     5399 1
    5628     5398     5415 1
    5629     5398     5416 1
    5630     5399     5400 1
    5631     5399     5417 1
    5632     5399     5418 1
    5633     5400     5401 1
    5634     5400     5419 1
    5635     5400     5420 1
    5636     5401     5402 1
    5637     5401     5421 1
    5638     5401     5422 1
    5639     5402     5403 1
    5640     5402     5423 1
    5641     5402     5424 1
    5642     5403     5404 1
    5643     5403     5425 1
    5644     5403     5426 1
    5645     5404     5405 1
    5646     5404     5427 1
    5647     5404     5428 1
    5648     5405     5406 1
    5649     5405     5429 1
    5650     5405     5430 1
    5651     5406     5407 1
    5652     5406     5431 1
    5653     5406     5432 1
    5654     5407     5408 1
    5655     5407     5433 1
    5656     5407     5434 1
    5657     5408     5409 1
    5658     5408     5435 1
    5659     5408     5436 1
    5660     5409     5410 1
    5661     5409     5437 1
    5662     5409     5438 1
    5663     5410     5411 1
    5664     5410     5439 1
    5665     5410     5440 1
    5666     5411     5412 1
    5667     5411     5441 1
    5668     5411     5442 1
    5669     5412     5443 1
    5670     5412     5444 1
    5671     5412     5445 1
    5672     5446     5447 1
    5673     5446     5453 1
    5674     5446     5469 1
    5675     5446     5518 1
    5676     5447     5448 1
    5677     5447     5451 1
    5678     5448     5449 1
    5679     5448     5452 1
    5680     5449     5450 1
    5681     5450     5451 1
    5682     5451     5457 1
    5683     5452     5453 1
    5684     5452     5456 1
    5685     5453     5454 1
    5686     5454     5455 1
    5687     5454     5458 1
    5688     5455     5456 1
    5689     5455     5467 1
    5690     5459     5460 1
    5691     5459     5467 1
    5692     5460     5461 1
    5693     5460     5468 1
    5694     5461     5462 1
    5695     5461     5571 1
    5696     5462     5463 1
    5697     5462     5466 1
    5698     5463     5464 1
    5699     5464     5465 1
    5700     5465     5466 1
    5701     5466     5467 1
    5702     5469     5470 1
    5703     5469     5485 1
    5704     5469     5486 1
    5705     5470     5471 1
    5706     5470     5487 1
    5707     5470     5488 1
    5708     5471     5472 1
    5709     5471     5489 1
    5710     5471     5490 1
    5711     5472     5473 1
    5712     5472     5491 1
    5713     5472     5492 1
    5714     5473     5474 1
    5715     5473     5493 1
    5716     5473     5494 1
    5717     5474     5475 1
    5718     5474     5495 1
    5719     5474     5496 1
    5720     5475     5476 1
    5721     5475     5497 1
    5722     5475     5498 1
    5723     5476     5477 1
    5724     5476     5499 1
    5725     5476     5500 1
    5726     5477     5478 1
    5727     5477     5501 1
    5728     5477     5502 1
    5729     5478     5479 1
    5730     5478     5503 1
    5731     5478     5504 1
    5732     5479     5480 1
    5733     5479     5505 1
    5734     5479     5506 1
    5735     5480     5481 1
    5736     5480     5507 1
    5737     5480     5508 1
    5738     5481     5482 1
    5739     5481     5509 1
    5740     5481     5510 1
    5741     5482     5483 1
    5742     5482     5511 1
    5743     5482     5512 1
    5744     5483     5484 1
    5745     5483     5513 1
    5746     5483     5514 1
    5747     5484     5515 1
    5748     5484     5516 1
    5749     5484     5517 1
    5750     5518     5519 1
    5751     5518     5534 1
    5752     5518     5535 1
    5753     5519     5520 1
    5754     5519     5536 1
    5755     5519     5537 1
    5756     5520     5521 1
    5757     5520     5538 1
    5758     5520     5539 1
    5759     5521     5522 1
    5760     5521     5540 1
    5761     5521     5541 1
    5762     5522     5523 1
    5763     5522     5542 1
    5764     5522     5543 1
    5765     5523     5524 1
    5766     5523     5544 1
    5767     5523     5545 1
    5768     5524     5525 1
    5769     5524     5546 1
    5770     5524     5547 1
    5771     5525     5526 1
    5772     5525     5548 1
    5773     5525     5549 1
    5774     5526     5527 1
    5775     5526     5550 1
    5776     5526     5551 1
    5777     5527     5528 1
    5778     5527     5552 1
    5779     5527     5553 1
    5780     5528     5529 1
    5781     5528     5554 1
    5782     5528     5555 1
    5783     5529     5530 1
    5784     5529     5556 1
    5785     5529     5557 1
    5786     5530     5531 1
    5787     5530     5558 1
    5788     5530     5559 1
    5789     5531     5532 1
    5790     5531     5560 1
    5791     5531     5561 1
    5792     5532     5533 1
    5793     5532     5562 1
    5794     5532     5563 1
    5795     5533     5564 1
    5796     5533     5565 1
    5797     5533     5566 1
    5798     5567     5568 1
    5799     5567     5574 1
    5800     5567     5590 1
    5801     5567     5639 1
    5802     5568     5569 1
    5803     5568     5572 1
    5804     5569     5570 1
    5805     5569     5573 1
    5806     5570     5571 1
    5807     5571     5572 1
    5808     5572     5578 1
    5809     5573     5574 1
    5810     5573     5577 1
    5811     5574     5575 1
    5812     5575     5576 1
    5813     5575     5579 1
    5814     5576     5577 1
    5815     5576     5588 1
    5816     5580     5581 1
    5817     5580     5588 1
    5818     5581     5582 1
    5819     5581     5589 1
    5820     5582     5583 1
    5821     5582     5692 1
    5822     5583     5584 1
    5823     5583     5587 1
    5824     5584     5585 1
    5825     5585     5586 1
    5826     5586     5587 1
    5827     5587     5588 1
    5828     5590     5591 1
    5829     5590     5606 1
    5830     5590     5607 1
    5831     5591     5592 1
    5832     5591     5608 1
    5833     5591     5609 1
    5834     5592     5593 1
    5835     5592     5610 1
    5836     5592     5611 1
    5837     5593     5594 1
    5838     5593     5612 1
    5839     5593     5613 1
    5840     5594     5595 1
    5841     5594     5614 1
    5842     5594     5615 1
    5843     5595     5596 1
    5844     5595     5616 1
    5845     5595     5617 1
    5846     5596     5597 1
    5847     5596     5618 1
    5848     5596     5619 1
    5849     5597     5598 1
    5850     5597     5620 1
    5851     5597     5621 1
    5852     5598     5599 1
    5853     5598     5622 1
    5854     5598     5623 1
    5855     5599     5600 1
    5856     5599     5624 1
    5857     5599     5625 1
    5858     5600     5601 1
    5859     5600     5626 1
    5860     5600     5627 1
    5861     5601     5602 1
    5862     5601     5628 1
    5863     5601     5629 1
    5864     5602     5603 1
    5865     5602     5630 1
    5866     5602     5631 1
    5867     5603     5604 1
    5868     5603     5632 1
    5869     5603     5633 1
    5870     5604     5605 1
    5871     5604     5634 1
    5872     5604     5635 1
    5873     5605     5636 1
    5874     5605     5637 1
    5875     5605     5638 1
    5876     5639     5640 1
    5877     5639     5655 1
    5878     5639     5656 1
    5879     5640     5641 1
    5880     5640     5657 1
    5881     5640     5658 1
    5882     5641     5642 1
    5883     5641     5659 1
    5884     5641     5660 1
    5885     5642     5643 1
    5886     5642     5661 1
    5887     5642     5662 1
    5888     5643     5644 1
    5889     5643     5663 1
    5890     5643     5664 1
    5891     5644     5645 1
    5892     5644     5665 1
    5893     5644     5666 1
    5894     5645     5646 1
    5895     5645     5667 1
    5896     5645     5668 1
    5897     5646     5647 1
    5898     5646     5669 1
    5899     5646     5670 1
    5900     5647     5648 1
    5901     5647     5671 1
    5902     5647     5672 1
    5903     5648     5649 1
    5904     5648     5673 1
    5905     5648     5674 1
    5906     5649     5650 1
    5907     5649     5675 1
    5908     5649     5676 1
    5909     5650     5651 1
    5910     5650     5677 1
    5911     5650     5678 1
    5912     5651     5652 1
    5913     5651     5679 1
    5914     5651     5680 1
    5915     5652     5653 1
    5916     5652     5681 1
    5917     5652     5682 1
    5918     5653     5654 1
    5919     5653     5683 1
    5920     5653     5684 1
    5921     5654     5685 1
    5922     5654     5686 1
    5923     5654     5687 1
    5924     5688     5689 1
    5925     5688     5695 1
    5926     5688     5711 1
    5927     5688     5760 1
    5928     5689     5690 1
    5929     5689     5693 1
    5930     5690     5691 1
    5931     5690     5694 1
    5932     5691     5692 1
    5933     5692     5693 1
    5934     5693     5699 1
    5935     5694     5695 1
    5936     5694     5698 1
    5937     5695     5696 1
    5938     5696     5697 1
    5939     5696     5700 1
    5940     5697     5698 1
    5941     5697     5709 1
    5942     5701     5702 1
    5943     5701     5709 1
    5944     5702     5703 1
    5945     5702     5710 1
    5946     5703     5704 1
    5947     5703     5813 1
    5948     5704     5705 1
    5949     5704     5708 1
    5950     5705     5706 1
    5951     5706     5707 1
    5952     5707     5708 1
    5953     5708     5709 1
    5954     5711     5712 1
    5955     5711     5727 1
    5956     5711     5728 1
    5957     5712     5713 1
    5958     5712     5729 1
    5959     5712     5730 1
    5960     5713     5714 1
    5961     5713     5731 1
    5962     5713     5732 1
    5963     5714     5715 1
    5964     5714     5733 1
    5965     5714     5734 1
    5966     5715     5716 1
    5967     5715     5735 1
    5968     5715     5736 1
    5969     5716     5717 1
    5970     5716     5737 1
    5971     5716     5738 1
    5972     5717     5718 1
    5973     5717     5739 1
    5974     5717     5740 1
    5975     5718     5719 1
    5976     5718     5741 1
    5977     5718     5742 1
    5978     5719     5720 1
    5979     5719     5743 1
    5980     5719     5744 1
    5981     5720     5721 1
    5982     5720     5745 1
    5983     5720     5746 1
    5984     5721     5722 1
    5985     5721     5747 1
    5986     5721     5748 1
    5987     5722     5723 1
    5988     5722     5749 1
    5989     5722     5750 1
    5990     5723     5724 1
    5991     5723     5751 1
    5992     5723     5752 1
    5993     5724     5725 1
    5994     5724     5753 1
    5995     5724     5754 1
    5996     5725     5726 1
    5997     5725     5755 1
    5998     5725     5756 1
    5999     5726     5757 1
    6000     5726     5758 1
    6001     5726     5759 1
    6002     5760     5761 1
    6003     5760     5776 1
    6004     5760     5777 1
    6005     5761     5762 1
    6006     5761     5778 1
    6007     5761     5779 1
    6008     5762     5763 1
    6009     5762     5780 1
    6010     5762     5781 1
    6011     5763     5764 1
    6012     5763     5782 1
    6013     5763     5783 1
    6014     5764     5765 1
    6015     5764     5784 1
    6016     5764     5785 1
    6017     5765     5766 1
    6018     5765     5786 1
    6019     5765     5787 1
    6020     5766     5767 1
    6021     5766     5788 1
    6022     5766     5789 1
    6023     5767     5768 1
    6024     5767     5790 1
    6025     5767     5791 1
    6026     5768     5769 1
    6027     5768     5792 1
    6028     5768     5793 1
    6029     5769     5770 1
    6030     5769     5794 1
    6031     5769     5795 1
    6032     5770     5771 1
    6033     5770     5796 1
    6034     5770     5797 1
    6035     5771     5772 1
    6036     5771     5798 1
    6037     5771     5799 1
    6038     5772     5773 1
    6039     5772     5800 1
    6040     5772     5801 1
    6041     5773     5774 1
    6042     5773     5802 1
    6043     5773     5803 1
    6044     5774     5775 1
    6045     5774     5804 1
    6046     5774     5805 1
    6047     5775     5806 1
    6048     5775     5807 1
    6049     5775     5808 1
    6050     5809     5810 1
    6051     5809     5816 1
    6052     5809     5832 1
    6053     5809     5881 1
    6054     5810     5811 1
    6055     5810     5814 1
    6056     5811     5812 1
    6057     5811     5815 1
    6058     5812     5813 1
    6059     5813     5814 1
    6060     5814     5820 1
    6061     5815     5816 1
    6062     5815     5819 1
    6063     5816     5817 1
    6064     5817     5818 1
    6065     5817     5821 1
    6066     5818     5819 1
    6067     5818     5830 1
    6068     5822     5823 1
    6069     5822     5830 1
    6070     5823     5824 1
    6071     5823     5831 1
    6072     5824     5825 1
    6073     5824     5934 1
    6074     5825     5826 1
    6075     5825     5829 1
    6076     5826     5827 1
    6077     5827     5828 1
    6078     5828     5829 1
    6079     5829     5830 1
    6080     5832     5833 1
    6081     5832     5848 1
    6082     5832     5849 1
    6083     5833     5834 1
    6084     5833     5850 1
    6085     5833     5851 1
    6086     5834     5835 1
    6087     5834     5852 1
    6088     5834     5853 1
    6089     5835     5836 1
    6090     5835     5854 1
    6091     5835     5855 1
    6092     5836     5837 1
    6093     5836     5856 1
    6094     5836     5857 1
    6095     5837     5838 1
    6096     5837     5858 1
    6097     5837     5859 1
    6098     5838     5839 1
    6099     5838     5860 1
    6100     5838     5861 1
    6101     5839     5840 1
    6102     5839     5862 1
    6103     5839     5863 1
    6104     5840     5841 1
    6105     5840     5864 1
    6106     5840     5865 1
    6107     5841     5842 1
    6108     5841     5866 1
    6109     5841     5867 1
    6110     5842     5843 1
    6111     5842     5868 1
    6112     5842     5869 1
    6113     5843     5844 1
    6114     5843     5870 1
    6115     5843     5871 1
    6116     5844     5845 1
    6117     5844     5872 1
    6118     5844     5873 1
    6119     5845     5846 1
    6120     5845     5874 1
    6121     5845     5875 1
    6122     5846     5847 1
    6123     5846     5876 1
    6124     5846     5877 1
    6125     5847     5878 1
    6126     5847     5879 1
    6127     5847     5880 1
    6128     5881     5882 1
    6129     5881     5897 1
    6130     5881     5898 1
    6131     5882     5883 1
    6132     5882     5899 1
    6133     5882     5900 1
    6134     5883     5884 1
    6135     5883     5901 1
    6136     5883     5902 1
    6137     5884     5885 1
    6138     5884     5903 1
    6139     5884     5904 1
    6140     5885     5886 1
    6141     5885     5905 1
    6142     5885     5906 1
    6143     5886     5887 1
    6144     5886     5907 1
    6145     5886     5908 1
    6146     5887     5888 1
    6147     5887     5909 1
    6148     5887     5910 1
    6149     5888     5889 1
    6150     5888     5911 1
    6151     5888     5912 1
    6152     5889     5890 1
    6153     5889     5913 1
    6154     5889     5914 1
    6155     5890     5891 1
    6156     5890     5915 1
    6157     5890     5916 1
    6158     5891     5892 1
    6159     5891     5917 1
    6160     5891     5918 1
    6161     5892     5893 1
    6162     5892     5919 1
    6163     5892     5920 1
    6164     5893     5894 1
    6165     5893     5921 1
    6166     5893     5922 1
    6167     5894     5895 1
    6168     5894     5923 1
    6169     5894     5924 1
    6170     5895     5896 1
    6171     5895     5925 1
    6172     5895     5926 1
    6173     5896     5927 1
    6174     5896     5928 1
    6175     5896     5929 1
    6176     5930     5931 1
    6177     5930     5937 1
    6178     5930     5953 1
    6179     5930     6002 1
    6180     5931     5932 1
    6181     5931     5935 1
    6182     5932     5933 1
    6183     5932     5936 1
    6184     5933     5934 1
    6185     5934     5935 1
    6186     5935     5941 1
    6187     5936     5937 1
    6188     5936     5940 1
    6189     5937     5938 1
    6190     5938     5939 1
    6191     5938     5942 1
    6192     5939     5940 1
    6193     5939     5951 1
    6194     5943     5944 1
    6195     5943     5951 1
    6196     5944     5945 1
    6197     5944     5952 1
    6198     5945     5946 1
    6199     5945     6055 1
    6200     5946     5947 1
    6201     5946     5950 1
    6202     5947     5948 1
    6203     5948     5949 1
    6204     5949     5950 1
    6205     5950     5951 1
    6206     5953     5954 1
    6207     5953     5969 1
    6208     5953     5970 1
    6209     5954     5955 1
    6210     5954     5971 1
    6211     5954     5972 1
    6212     5955     5956 1
    6213     5955     5973 1
    6214     5955     5974 1
    6215     5956     5957 1
    6216     5956     5975 1
    6217     5956     5976 1
    6218     5957     5958 1
    6219     5957     5977 1
    6220     5957     5978 1
    6221     5958     5959 1
    6222     5958     5979 1
    6223     5958     5980 1
    6224     5959     5960 1
    6225     5959     5981 1
    6226     5959     5982 1
    6227     5960     5961 1
    6228     5960     5983 1
    6229     5960     5984 1
    6230     5961     5962 1
    6231     5961     5985 1
    6232     5961     5986 1
    6233     5962     5963 1
    6234     5962     5987 1
    6235     5962     5988 1
    6236     5963     5964 1
    6237     5963     5989 1
    6238     5963     5990 1
    6239     5964     5965 1
    6240     5964     5991 1
    6241     5964     5992 1
    6242     5965     5966 1
    6243     5965     5993 1
    6244     5965     5994 1
    6245     5966     5967 1
    6246     5966     5995 1
    6247     5966     5996 1
    6248     5967     5968 1
    6249     5967     5997 1
    6250     5967     5998 1
    6251     5968     5999 1
    6252     5968     6000 1
    6253     5968     6001 1
    6254     6002     6003 1
    6255     6002     6018 1
    6256     6002     6019 1
    6257     6003     6004 1
    6258     6003     6020 1
    6259     6003     6021 1
    6260     6004     6005 1
    6261     6004     6022 1
    6262     6004     6023 1
    6263     6005     6006 1
    6264     6005     6024 1
    6265     6005     6025 1
    6266     6006     6007 1
    6267     6006     6026 1
    6268     6006     6027 1
    6269     6007     6008 1
    6270     6007     6028 1
    6271     6007     6029 1
    6272     6008     6009 1
    6273     6008     6030 1
    6274     6008     6031 1
    6275     6009     6010 1
    6276     6009     6032 1
    6277     6009     6033 1
    6278     6010     6011 1
    6279     6010     6034 1
    6280     6010     6035 1
    6281     6011     6012 1
    6282     6011     6036 1
    6283     6011     6037 1
    6284     6012     6013 1
    6285     6012     6038 1
    6286     6012     6039 1
    6287     6013     6014 1
    6288     6013     6040 1
    6289     6013     6041 1
    6290     6014     6015 1
    6291     6014     6042 1
    6292     6014     6043 1
    6293     6015     6016 1
    6294     6015     6044 1
    6295     6015     6045 1
    6296     6016     6017 1
    6297     6016     6046 1
    6298     6016     6047 1
    6299     6017     6048 1
    6300     6017     6049 1
    6301     6017     6050 1
    6302     6051     6052 1
    6303     6051     6058 1
    6304     6051     6074 1
    6305     6051     6123 1
    6306     6052     6053 1
    6307     6052     6056 1
    6308     6053     6054 1
    6309     6053     6057 1
    6310     6054     6055 1
    6311     6055     6056 1
    6312     6056     6062 1
    6313     6057     6058 1
    6314     6057     6061 1
    6315     6058     6059 1
    6316     6059     6060 1
    6317     6059     6063 1
    6318     6060     6061 1
    6319     6060     6072 1
    6320     6064     6065 1
    6321     6064     6072 1
    6322     6065     6066 1
    6323     6065     6073 1
    6324     6066     6067 1
    6325     6066     6176 1
    6326     6067     6068 1
    6327     6067     6071 1
    6328     6068     6069 1
    6329     6069     6070 1
    6330     6070     6071 1
    6331     6071     6072 1
    6332     6074     6075 1
    6333     6074     6090 1
    6334     6074     6091 1
    6335     6075     6076 1
    6336     6075     6092 1
    6337     6075     6093 1
    6338     6076     6077 1
    6339     6076     6094 1
    6340     6076     6095 1
    6341     6077     6078 1
    6342     6077     6096 1
    6343     6077     6097 1
    6344     6078     6079 1
    6345     6078     6098 1
    6346     6078     6099 1
    6347     6079     6080 1
    6348     6079     6100 1
    6349     6079     6101 1
    6350     6080     6081 1
    6351     6080     6102 1
    6352     6080     6103 1
    6353     6081     6082 1
    6354     6081     6104 1
    6355     6081     6105 1
    6356     6082     6083 1
    6357     6082     6106 1
    6358     6082     6107 1
    6359     6083     6084 1
    6360     6083     6108 1
    6361     6083     6109 1
    6362     6084     6085 1
    6363     6084     6110 1
    6364     6084     6111 1
    6365     6085     6086 1
    6366     6085     6112 1
    6367     6085     6113 1
    6368     6086     6087 1
    6369     6086     6114 1
    6370     6086     6115 1
    6371     6087     6088 1
    6372     6087     6116 1
    6373     6087     6117 1
    6374     6088     6089 1
    6375     6088     6118 1
    6376     6088     6119 1
    6377     6089     6120 1
    6378     6089     6121 1
    6379     6089     6122 1
    6380     6123     6124 1
    6381     6123     6139 1
    6382     6123     6140 1
    6383     6124     6125 1
    6384     6124     6141 1
    6385     6124     6142 1
    6386     6125     6126 1
    6387     6125     6143 1
    6388     6125     6144 1
    6389     6126     6127 1
    6390     6126     6145 1
    6391     6126     6146 1
    6392     6127     6128 1
    6393     6127     6147 1
    6394     6127     6148 1
    6395     6128     6129 1
    6396     6128     6149 1
    6397     6128     6150 1
    6398     6129     6130 1
    6399     6129     6151 1
    6400     6129     6152 1
    6401     6130     6131 1
    6402     6130     6153 1
    6403     6130     6154 1
    6404     6131     6132 1
    6405     6131     6155 1
    6406     6131     6156 1
    6407     6132     6133 1
    6408     6132     6157 1
    6409     6132     6158 1
    6410     6133     6134 1
    6411     6133     6159 1
    6412     6133     6160 1
    6413     6134     6135 1
    6414     6134     6161 1
    6415     6134     6162 1
    6416     6135     6136 1
    6417     6135     6163 1
    6418     6135     6164 1
    6419     6136     6137 1
    6420     6136     6165 1
    6421     6136     6166 1
    6422     6137     6138 1
    6423     6137     6167 1
    6424     6137     6168 1
    6425     6138     6169 1
    6426     6138     6170 1
    6427     6138     6171 1
    6428     6172     6173 1
    6429     6172     6179 1
    6430     6172     6195 1
    6431     6172     6244 1
    6432     6173     6174 1
    6433     6173     6177 1
    6434     6174     6175 1
    6435     6174     6178 1
    6436     6175     6176 1
    6437     6176     6177 1
    6438     6177     6183 1
    6439     6178     6179 1
    6440     6178     6182 1
    6441     6179     6180 1
    6442     6180     6181 1
    6443     6180     6184 1
    6444     6181     6182 1
    6445     6181     6193 1
    6446     6185     6186 1
    6447     6185     6193 1
    6448     6186     6187 1
    6449     6186     6194 1
    6450     6187     6188 1
    6451     6187     6297 1
    6452     6188     6189 1
    6453     6188     6192 1
    6454     6189     6190 1
    6455     6190     6191 1
    6456     6191     6192 1
    6457     6192     6193 1
    6458     6195     6196 1
    6459     6195     6211 1
    6460     6195     6212 1
    6461     6196     6197 1
    6462     6196     6213 1
    6463     6196     6214 1
    6464     6197     6198 1
    6465     6197     6215 1
    6466     6197     6216 1
    6467     6198     6199 1
    6468     6198     6217 1
    6469     6198     6218 1
    6470     6199     6200 1
    6471     6199     6219 1
    6472     6199     6220 1
    6473     6200     6201 1
    6474     6200     6221 1
    6475     6200     6222 1
    6476     6201     6202 1
    6477     6201     6223 1
    6478     6201     6224 1
    6479     6202     6203 1
    6480     6202     6225 1
    6481     6202     6226 1
    6482     6203     6204 1
    6483     6203     6227 1
    6484     6203     6228 1
    6485     6204     6205 1
    6486     6204     6229 1
    6487     6204     6230 1
    6488     6205     6206 1
    6489     6205     6231 1
    6490     6205     6232 1
    6491     6206     6207 1
    6492     6206     6233 1
    6493     6206     6234 1
    6494     6207     6208 1
    6495     6207     6235 1
    6496     6207     6236 1
    6497     6208     6209 1
    6498     6208     6237 1
    6499     6208     6238 1
    6500     6209     6210 1
    6501     6209     6239 1
    6502     6209     6240 1
    6503     6210     6241 1
    6504     6210     6242 1
    6505     6210     6243 1
    6506     6244     6245 1
    6507     6244     6260 1
    6508     6244     6261 1
    6509     6245     6246 1
    6510     6245     6262 1
    6511     6245     6263 1
    6512     6246     6247 1
    6513     6246     6264 1
    6514     6246     6265 1
    6515     6247     6248 1
    6516     6247     6266 1
    6517     6247     6267 1
    6518     6248     6249 1
    6519     6248     6268 1
    6520     6248     6269 1
    6521     6249     6250 1
    6522     6249     6270 1
    6523     6249     6271 1
    6524     6250     6251 1
    6525     6250     6272 1
    6526     6250     6273 1
    6527     6251     6252 1
    6528     6251     6274 1
    6529     6251     6275 1
    6530     6252     6253 1
    6531     6252     6276 1
    6532     6252     6277 1
    6533     6253     6254 1
    6534     6253     6278 1
    6535     6253     6279 1
    6536     6254     6255 1
    6537     6254     6280 1
    6538     6254     6281 1
    6539     6255     6256 1
    6540     6255     6282 1
    6541     6255     6283 1
    6542     6256     6257 1
    6543     6256     6284 1
    6544     6256     6285 1
    6545     6257     6258 1
    6546     6257     6286 1
    6547     6257     6287 1
    6548     6258     6259 1
    6549     6258     6288 1
    6550     6258     6289 1
    6551     6259     6290 1
    6552     6259     6291 1
    6553     6259     6292 1
    6554     6293     6294 1
    6555     6293     6300 1
    6556     6293     6316 1
    6557     6293     6365 1
    6558     6294     6295 1
    6559     6294     6298 1
    6560     6295     6296 1
    6561     6295     6299 1
    6562     6296     6297 1
    6563     6297     6298 1
    6564     6298     6304 1
    6565     6299     6300 1
    6566     6299     6303 1
    6567     6300     6301 1
    6568     6301     6302 1
    6569     6301     6305 1
    6570     6302     6303 1
    6571     6302     6314 1
    6572     6306     6307 1
    6573     6306     6314 1
    6574     6307     6308 1
    6575     6307     6315 1
    6576     6308     6309 1
    6577     6308     6418 1
    6578     6309     6310 1
    6579     6309     6313 1
    6580     6310     6311 1
    6581     6311     6312 1
    6582     6312     6313 1
    6583     6313     6314 1
    6584     6316     6317 1
    6585     6316     6332 1
    6586     6316     6333 1
    6587     6317     6318 1
    6588     6317     6334 1
    6589     6317     6335 1
    6590     6318     6319 1
    6591     6318     6336 1
    6592     6318     6337 1
    6593     6319     6320 1
    6594     6319     6338 1
    6595     6319     6339 1
    6596     6320     6321 1
    6597     6320     6340 1
    6598     6320     6341 1
    6599     6321     6322 1
    6600     6321     6342 1
    6601     6321     6343 1
    6602     6322     6323 1
    6603     6322     6344 1
    6604     6322     6345 1
    6605     6323     6324 1
    6606     6323     6346 1
    6607     6323     6347 1
    6608     6324     6325 1
    6609     6324     6348 1
    6610     6324     6349 1
    6611     6325     6326 1
    6612     6325     6350 1
    6613     6325     6351 1
    6614     6326     6327 1
    6615     6326     6352 1
    6616     6326     6353 1
    6617     6327     6328 1
    6618     6327     6354 1
    6619     6327     6355 1
    6620     6328     6329 1
    6621     6328     6356 1
    6622     6328     6357 1
    6623     6329     6330 1
    6624     6329     6358 1
    6625     6329     6359 1
    6626     6330     6331 1
    6627     6330     6360 1
    6628     6330     6361 1
    6629     6331     6362 1
    6630     6331     6363 1
    6631     6331     6364 1
    6632     6365     6366 1
    6633     6365     6381 1
    6634     6365     6382 1
    6635     6366     6367 1
    6636     6366     6383 1
    6637     6366     6384 1
    6638     6367     6368 1
    6639     6367     6385 1
    6640     6367     6386 1
    6641     6368     6369 1
    6642     6368     6387 1
    6643     6368     6388 1
    6644     6369     6370 1
    6645     6369     6389 1
    6646     6369     6390 1
    6647     6370     6371 1
    6648     6370     6391 1
    6649     6370     6392 1
    6650     6371     6372 1
    6651     6371     6393 1
    6652     6371     6394 1
    6653     6372     6373 1
    6654     6372     6395 1
    6655     6372     6396 1
    6656     6373     6374 1
    6657     6373     6397 1
    6658     6373     6398 1
    6659     6374     6375 1
    6660     6374     6399 1
    6661     6374     6400 1
    6662     6375     6376 1
    6663     6375     6401 1
    6664     6375     6402 1
    6665     6376     6377 1
    6666     6376     6403 1
    6667     6376     6404 1
    6668     6377     6378 1
    6669     6377     6405 1
    6670     6377     6406 1
    6671     6378     6379 1
    6672     6378     6407 1
    6673     6378     6408 1
    6674     6379     6380 1
    6675     6379     6409 1
    6676     6379     6410 1
    6677     6380     6411 1
    6678     6380     6412 1
    6679     6380     6413 1
    6680     6414     6415 1
    6681     6414     6421 1
    6682     6414     6437 1
    6683     6414     6486 1
    6684     6415     6416 1
    6685     6415     6419 1
    6686     6416     6417 1
    6687     6416     6420 1
    6688     6417     6418 1
    6689     6418     6419 1
    6690     6419     6425 1
    6691     6420     6421 1
    6692     6420     6424 1
    6693     6421     6422 1
    6694     6422     6423 1
    6695     6422     6426 1
    6696     6423     6424 1
    6697     6423     6435 1
    6698     6427     6428 1
    6699     6427     6435 1
    6700     6428     6429 1
    6701     6428     6436 1
    6702     6429     6430 1
    6703     6429     6539 1
    6704     6430     6431 1
    6705     6430     6434 1
    6706     6431     6432 1
    6707     6432     6433 1
    6708     6433     6434 1
    6709     6434     6435 1
    6710     6437     6438 1
    6711     6437     6453 1
    6712     6437     6454 1
    6713     6438     6439 1
    6714     6438     6455 1
    6715     6438     6456 1
    6716     6439     6440 1
    6717     6439     6457 1
    6718     6439     6458 1
    6719     6440     6441 1
    6720     6440     6459 1
    6721     6440     6460 1
    6722     6441     6442 1
    6723     6441     6461 1
    6724     6441     6462 1
    6725     6442     6443 1
    6726     6442     6463 1
    6727     6442     6464 1
    6728     6443     6444 1
    6729     6443     6465 1
    6730     6443     6466 1
    6731     6444     6445 1
    6732     6444     6467 1
    6733     6444     6468 1
    6734     6445     6446 1
    6735     6445     6469 1
    6736     6445     6470 1
    6737     6446     6447 1
    6738     6446     6471 1
    6739     6446     6472 1
    6740     6447     6448 1
    6741     6447     6473 1
    6742     6447     6474 1
    6743     6448     6449 1
    6744     6448     6475 1
    6745     6448     6476 1
    6746     6449     6450 1
    6747     6449     6477 1
    6748     6449     6478 1
    6749     6450     6451 1
    6750     6450     6479 1
    6751     6450     6480 1
    6752     6451     6452 1
    6753     6451     6481 1
    6754     6451     6482 1
    6755     6452     6483 1
    6756     6452     6484 1
    6757     6452     6485 1
    6758     6486     6487 1
    6759     6486     6502 1
    6760     6486     6503 1
    6761     6487     6488 1
    6762     6487     6504 1
    6763     6487     6505 1
    6764     6488     6489 1
    6765     6488     6506 1
    6766     6488     6507 1
    6767     6489     6490 1
    6768     6489     6508 1
    6769     6489     6509 1
    6770     6490     6491 1
    6771     6490     6510 1
    6772     6490     6511 1
    6773     6491     6492 1
    6774     6491     6512 1
    6775     6491     6513 1
    6776     6492     6493 1
    6777     6492     6514 1
    6778     6492     6515 1
    6779     6493     6494 1
    6780     6493     6516 1
    6781     6493     6517 1
    6782     6494     6495 1
    6783     6494     6518 1
    6784     6494     6519 1
    6785     6495     6496 1
    6786     6495     6520 1
    6787     6495     6521 1
    6788     6496     6497 1
    6789     6496     6522 1
    6790     6496     6523 1
    6791     6497     6498 1
    6792     6497     6524 1
    6793     6497     6525 1
    6794     6498     6499 1
    6795     6498     6526 1
    6796     6498     6527 1
    6797     6499     6500 1
    6798     6499     6528 1
    6799     6499     6529 1
    6800     6500     6501 1
    6801     6500     6530 1
    6802     6500     6531 1
    6803     6501     6532 1
    6804     6501     6533 1
    6805     6501     6534 1
    6806     6535     6536 1
    6807     6535     6542 1
    6808     6535     6558 1
    6809     6535     6607 1
    6810     6536     6537 1
    6811     6536     6540 1
    6812     6537     6538 1
    6813     6537     6541 1
    6814     6538     6539 1
    6815     6539     6540 1
    6816     6540     6546 1
    6817     6541     6542 1
    6818     6541     6545 1
    6819     6542     6543 1
    6820     6543     6544 1
    6821     6543     6547 1
    6822     6544     6545 1
    6823     6544     6556 1
    6824     6548     6549 1
    6825     6548     6556 1
    6826     6549     6550 1
    6827     6549     6557 1
    6828     6550     6551 1
    6829     6550     6660 1
    6830     6551     6552 1
    6831     6551     6555 1
    6832     6552     6553 1
    6833     6553     6554 1
    6834     6554     6555 1
    6835     6555     6556 1
    6836     6558     6559 1
    6837     6558     6574 1
    6838     6558     6575 1
    6839     6559     6560 1
    6840     6559     6576 1
    6841     6559     6577 1
    6842     6560     6561 1
    6843     6560     6578 1
    6844     6560     6579 1
    6845     6561     6562 1
    6846     6561     6580 1
    6847     6561     6581 1
    6848     6562     6563 1
    6849     6562     6582 1
    6850     6562     6583 1
    6851     6563     6564 1
    6852     6563     6584 1
    6853     6563     6585 1
    6854     6564     6565 1
    6855     6564     6586 1
    6856     6564     6587 1
    6857     6565     6566 1
    6858     6565     6588 1
    6859     6565     6589 1
    6860     6566     6567 1
    6861     6566     6590 1
    6862     6566     6591 1
    6863     6567     6568 1
    6864     6567     6592 1
    6865     6567     6593 1
    6866     6568     6569 1
    6867     6568     6594 1
    6868     6568     6595 1
    6869     6569     6570 1
    6870     6569     6596 1
    6871     6569     6597 1
    6872     6570     6571 1
    6873     6570     6598 1
    6874     6570     6599 1
    6875     6571     6572 1
    6876     6571     6600 1
    6877     6571     6601 1
    6878     6572     6573 1
    6879     6572     6602 1
    6880     6572     6603 1
    6881     6573     6604 1
    6882     6573     6605 1
    6883     6573     6606 1
    6884     6607     6608 1
    6885     6607     6623 1
    6886     6607     6624 1
    6887     6608     6609 1
    6888     6608     6625 1
    6889     6608     6626 1
    6890     6609     6610 1
    6891     6609     6627 1
    6892     6609     6628 1
    6893     6610     6611 1
    6894     6610     6629 1
    6895     6610     6630 1
    6896     6611     6612 1
    6897     6611     6631 1
    6898     6611     6632 1
    6899     6612     6613 1
    6900     6612     6633 1
    6901     6612     6634 1
    6902     6613     6614 1
    6903     6613     6635 1
    6904     6613     6636 1
    6905     6614     6615 1
    6906     6614     6637 1
    6907     6614     6638 1
    6908     6615     6616 1
    6909     6615     6639 1
    6910     6615     6640 1
    6911     6616     6617 1
    6912     6616     6641 1
    6913     6616     6642 1
    6914     6617     6618 1
    6915     6617     6643 1
    6916     6617     6644 1
    6917     6618     6619 1
    6918     6618     6645 1
    6919     6618     6646 1
    6920     6619     6620 1
    6921     6619     6647 1
    6922     6619     6648 1
    6923     6620     6621 1
    6924     6620     6649 1
    6925     6620     6650 1
    6926     6621     6622 1
    6927     6621     6651 1
    6928     6621     6652 1
    6929     6622     6653 1
    6930     6622     6654 1
    6931     6622     6655 1
    6932     6656     6657 1
    6933     6656     6663 1
    6934     6656     6679 1
    6935     6656     6728 1
    6936     6657     6658 1
    6937     6657     6661 1
    6938     6658     6659 1
    6939     6658     6662 1
    6940     6659     6660 1
    6941     6660     6661 1
    6942     6661     6667 1
    6943     6662     6663 1
    6944     6662     6666 1
    6945     6663     6664 1
    6946     6664     6665 1
    6947     6664     6668 1
    6948     6665     6666 1
    6949     6665     6677 1
    6950     6669     6670 1
    6951     6669     6677 1
    6952     6670     6671 1
    6953     6670     6678 1
    6954     6671     6672 1
    6955     6671     6781 1
    6956     6672     6673 1
    6957     6672     6676 1
    6958     6673     6674 1
    6959     6674     6675 1
    6960     6675     6676 1
    6961     6676     6677 1
    6962     6679     6680 1
    6963     6679     6695 1
    6964     6679     6696 1
    6965     6680     6681 1
    6966     6680     6697 1
    6967     6680     6698 1
    6968     6681     6682 1
    6969     6681     6699 1
    6970     6681     6700 1
    6971     6682     6683 1
    6972     6682     6701 1
    6973     6682     6702 1
    6974     6683     6684 1
    6975     6683     6703 1
    6976     6683     6704 1
    6977     6684     6685 1
    6978     6684     6705 1
    6979     6684     6706 1
    6980     6685     6686 1
    6981     6685     6707 1
    6982     6685     6708 1
    6983     6686     6687 1
    6984     6686     6709 1
    6985     6686     6710 1
    6986     6687     6688 1
    6987     6687     6711 1
    6988     6687     6712 1
    6989     6688     6689 1
    6990     6688     6713 1
    6991     6688     6714 1
    6992     6689     6690 1
    6993     6689     6715 1
    6994     6689     6716 1
    6995     6690     6691 1
    6996     6690     6717 1
    6997     6690     6718 1
    6998     6691     6692 1
    6999     6691     6719 1
    7000     6691     6720 1
    7001     6692     6693 1
    7002     6692     6721 1
    7003     6692     6722 1
    7004     6693     6694 1
    7005     6693     6723 1
    7006     6693     6724 1
    7007     6694     6725 1
    7008     6694     6726 1
    7009     6694     6727 1
    7010     6728     6729 1
    7011     6728     6744 1
    7012     6728     6745 1
    7013     6729     6730 1
    7014     6729     6746 1
    7015     6729     6747 1
    7016     6730     6731 1
    7017     6730     6748 1
    7018     6730     6749 1
    7019     6731     6732 1
    7020     6731     6750 1
    7021     6731     6751 1
    7022     6732     6733 1
    7023     6732     6752 1
    7024     6732     6753 1
    7025     6733     6734 1
    7026     6733     6754 1
    7027     6733     6755 1
    7028     6734     6735 1
    7029     6734     6756 1
    7030     6734     6757 1
    7031     6735     6736 1
    7032     6735     6758 1
    7033     6735     6759 1
    7034     6736     6737 1
    7035     6736     6760 1
    7036     6736     6761 1
    7037     6737     6738 1
    7038     6737     6762 1
    7039     6737     6763 1
    7040     6738     6739 1
    7041     6738     6764 1
    7042     6738     6765 1
    7043     6739     6740 1
    7044     6739     6766 1
    7045     6739     6767 1
    7046     6740     6741 1
    7047     6740     6768 1
    7048     6740     6769 1
    7049     6741     6742 1
    7050     6741     6770 1
    7051     6741     6771 1
    7052     6742     6743 1
    7053     6742     6772 1
    7054     6742     6773 1
    7055     6743     6774 1
    7056     6743     6775 1
    7057     6743     6776 1
    7058     6777     6778 1
    7059     6777     6784 1
    7060     6777     6800 1
    7061     6777     6849 1
    7062     6778     6779 1
    7063     6778     6782 1
    7064     6779     6780 1
    7065     6779     6783 1
    7066     6780     6781 1
    7067     6781     6782 1
    7068     6782     6788 1
    7069     6783     6784 1
    7070     6783     6787 1
    7071     6784     6785 1
    7072     6785     6786 1
    7073     6785     6789 1
    7074     6786     6787 1
    7075     6786     6798 1
    7076     6790     6791 1
    7077     6790     6798 1
    7078     6791     6792 1
    7079     6791     6799 1
    7080     6792     6793 1
    7081     6792     6902 1
    7082     6793     6794 1
    7083     6793     6797 1
    7084     6794     6795 1
    7085     6795     6796 1
    7086     6796     6797 1
    7087     6797     6798 1
    7088     6800     6801 1
    7089     6800     6816 1
    7090     6800     6817 1
    7091     6801     6802 1
    7092     6801     6818 1
    7093     6801     6819 1
    7094     6802     6803 1
    7095     6802     6820 1
    7096     6802     6821 1
    7097     6803     6804 1
    7098     6803     6822 1
    7099     6803     6823 1
    7100     6804     6805 1
    7101     6804     6824 1
    7102     6804     6825 1
    7103     6805     6806 1
    7104     6805     6826 1
    7105     6805     6827 1
    7106     6806     6807 1
    7107     6806     6828 1
    7108     6806     6829 1
    7109     6807     6808 1
    7110     6807     6830 1
    7111     6807     6831 1
    7112     6808     6809 1
    7113     6808     6832 1
    7114     6808     6833 1
    7115     6809     6810 1
    7116     6809     6834 1
    7117     6809     6835 1
    7118     6810     6811 1
    7119     6810     6836 1
    7120     6810     6837 1
    7121     6811     6812 1
    7122     6811     6838 1
    7123     6811     6839 1
    7124     6812     6813 1
    7125     6812     6840 1
    7126     6812     6841 1
    7127     6813     6814 1
    7128     6813     6842 1
    7129     6813     6843 1
    7130     6814     6815 1
    7131     6814     6844 1
    7132     6814     6845 1
    7133     6815     6846 1
    7134     6815     6847 1
    7135     6815     6848 1
    7136     6849     6850 1
    7137     6849     6865 1
    7138     6849     6866 1
    7139     6850     6851 1
    7140     6850     6867 1
    7141     6850     6868 1
    7142     6851     6852 1
    7143     6851     6869 1
    7144     6851     6870 1
    7145     6852     6853 1
    7146     6852     6871 1
    7147     6852     6872 1
    7148     6853     6854 1
    7149     6853     6873 1
    7150     6853     6874 1
    7151     6854     6855 1
    7152     6854     6875 1
    7153     6854     6876 1
    7154     6855     6856 1
    7155     6855     6877 1
    7156     6855     6878 1
    7157     6856     6857 1
    7158     6856     6879 1
    7159     6856     6880 1
    7160     6857     6858 1
    7161     6857     6881 1
    7162     6857     6882 1
    7163     6858     6859 1
    7164     6858     6883 1
    7165     6858     6884 1
    7166     6859     6860 1
    7167     6859     6885 1
    7168     6859     6886 1
    7169     6860     6861 1
    7170     6860     6887 1
    7171     6860     6888 1
    7172     6861     6862 1
    7173     6861     6889 1
    7174     6861     6890 1
    7175     6862     6863 1
    7176     6862     6891 1
    7177     6862     6892 1
    7178     6863     6864 1
    7179     6863     6893 1
    7180     6863     6894 1
    7181     6864     6895 1
    7182     6864     6896 1
    7183     6864     6897 1
    7184     6898     6899 1
    7185     6898     6905 1
    7186     6898     6921 1
    7187     6898     6970 1
    7188     6899     6900 1
    7189     6899     6903 1
    7190     6900     6901 1
    7191     6900     6904 1
    7192     6901     6902 1
    7193     6902     6903 1
    7194     6903     6909 1
    7195     6904     6905 1
    7196     6904     6908 1
    7197     6905     6906 1
    7198     6906     6907 1
    7199     6906     6910 1
    7200     6907     6908 1
    7201     6907     6919 1
    7202     6911     6912 1
    7203     6911     6919 1
    7204     6912     6913 1
    7205     6912     6920 1
    7206     6913     6914 1
    7207     6913     7023 1
    7208     6914     6915 1
    7209     6914     6918 1
    7210     6915     6916 1
    7211     6916     6917 1
    7212     6917     6918 1
    7213     6918     6919 1
    7214     6921     6922 1
    7215     6921     6937 1
    7216     6921     6938 1
    7217     6922     6923 1
    7218     6922     6939 1
    7219     6922     6940 1
    7220     6923     6924 1
    7221     6923     6941 1
    7222     6923     6942 1
    7223     6924     6925 1
    7224     6924     6943 1
    7225     6924     6944 1
    7226     6925     6926 1
    7227     6925     6945 1
    7228     6925     6946 1
    7229     6926     6927 1
    7230     6926     6947 1
    7231     6926     6948 1
    7232     6927     6928 1
    7233     6927     6949 1
    7234     6927     6950 1
    7235     6928     6929 1
    7236     6928     6951 1
    7237     6928     6952 1
    7238     6929     6930 1
    7239     6929     6953 1
    7240     6929     6954 1
    7241     6930     6931 1
    7242     6930     6955 1
    7243     6930     6956 1
    7244     6931     6932 1
    7245     6931     6957 1
    7246     6931     6958 1
    7247     6932     6933 1
    7248     6932     6959 1
    7249     6932     6960 1
    7250     6933     6934 1
    7251     6933     6961 1
    7252     6933     6962 1
    7253     6934     6935 1
    7254     6934     6963 1
    7255     6934     6964 1
    7256     6935     6936 1
    7257     6935     6965 1
    7258     6935     6966 1
    7259     6936     6967 1
    7260     6936     6968 1
    7261     6936     6969 1
    7262     6970     6971 1
    7263     6970     6986 1
    7264     6970     6987 1
    7265     6971     6972 1
    7266     6971     6988 1
    7267     6971     6989 1
    7268     6972     6973 1
    7269     6972     6990 1
    7270     6972     6991 1
    7271     6973     6974 1
    7272     6973     6992 1
    7273     6973     6993 1
    7274     6974     6975 1
    7275     6974     6994 1
    7276     6974     6995 1
    7277     6975     6976 1
    7278     6975     6996 1
    7279     6975     6997 1
    7280     6976     6977 1
    7281     6976     6998 1
    7282     6976     6999 1
    7283     6977     6978 1
    7284     6977     7000 1
    7285     6977     7001 1
    7286     6978     6979 1
    7287     6978     7002 1
    7288     6978     7003 1
    7289     6979     6980 1
    7290     6979     7004 1
    7291     6979     7005 1
    7292     6980     6981 1
    7293     6980     7006 1
    7294     6980     7007 1
    7295     6981     6982 1
    7296     6981     7008 1
    7297     6981     7009 1
    7298     6982     6983 1
    7299     6982     7010 1
    7300     6982     7011 1
    7301     6983     6984 1
    7302     6983     7012 1
    7303     6983     7013 1
    7304     6984     6985 1
    7305     6984     7014 1
    7306     6984     7015 1
    7307     6985     7016 1
    7308     6985     7017 1
    7309     6985     7018 1
    7310     7019     7020 1
    7311     7019     7026 1
    7312     7019     7042 1
    7313     7019     7091 1
    7314     7020     7021 1
    7315     7020     7024 1
    7316     7021     7022 1
    7317     7021     7025 1
    7318     7022     7023 1
    7319     7023     7024 1
    7320     7024     7030 1
    7321     7025     7026 1
    7322     7025     7029 1
    7323     7026     7027 1
    7324     7027     7028 1
    7325     7027     7031 1
    7326     7028     7029 1
    7327     7028     7040 1
    7328     7032     7033 1
    7329     7032     7040 1
    7330     7033     7034 1
    7331     7033     7041 1
    7332     7034     7035 1
    7333     7034     7144 1
    7334     7035     7036 1
    7335     7035     7039 1
    7336     7036     7037 1
    7337     7037     7038 1
    7338     7038     7039 1
    7339     7039     7040 1
    7340     7042     7043 1
    7341     7042     7058 1
    7342     7042     7059 1
    7343     7043     7044 1
    7344     7043     7060 1
    7345     7043     7061 1
    7346     7044     7045 1
    7347     7044     7062 1
    7348     7044     7063 1
    7349     7045     7046 1
    7350     7045     7064 1
    7351     7045     7065 1
    7352     7046     7047 1
    7353     7046     7066 1
    7354     7046     7067 1
    7355     7047     7048 1
    7356     7047     7068 1
    7357     7047     7069 1
    7358     7048     7049 1
    7359     7048     7070 1
    7360     7048     7071 1
    7361     7049     7050 1
    7362     7049     7072 1
    7363     7049     7073 1
    7364     7050     7051 1
    7365     7050     7074 1
    7366     7050     7075 1
    7367     7051     7052 1
    7368     7051     7076 1
    7369     7051     7077 1
    7370     7052     7053 1
    7371     7052     7078 1
    7372     7052     7079 1
    7373     7053     7054 1
    7374     7053     7080 1
    7375     7053     7081 1
    7376     7054     7055 1
    7377     7054     7082 1
    7378     7054     7083 1
    7379     7055     7056 1
    7380     7055     7084 1
    7381     7055     7085 1
    7382     7056     7057 1
    7383     7056     7086 1
    7384     7056     7087 1
    7385     7057     7088 1
    7386     7057     7089 1
    7387     7057     7090 1
    7388     7091     7092 1
    7389     7091     7107 1
    7390     7091     7108 1
    7391     7092     7093 1
    7392     7092     7109 1
    7393     7092     7110 1
    7394     7093     7094 1
    7395     7093     7111 1
    7396     7093     7112 1
    7397     7094     7095 1
    7398     7094     7113 1
    7399     7094     7114 1
    7400     7095     7096 1
    7401     7095     7115 1
    7402     7095     7116 1
    7403     7096     7097 1
    7404     7096     7117 1
    7405     7096     7118 1
    7406     7097     7098 1
    7407     7097     7119 1
    7408     7097     7120 1
    7409     7098     7099 1
    7410     7098     7121 1
    7411     7098     7122 1
    7412     7099     7100 1
    7413     7099     7123 1
    7414     7099     7124 1
    7415     7100     7101 1
    7416     7100     7125 1
    7417     7100     7126 1
    7418     7101     7102 1
    7419     7101     7127 1
    7420     7101     7128 1
    7421     7102     7103 1
    7422     7102     7129 1
    7423     7102     7130 1
    7424     7103     7104 1
    7425     7103     7131 1
    7426     7103     7132 1
    7427     7104     7105 1
    7428     7104     7133 1
    7429     7104     7134 1
    7430     7105     7106 1
    7431     7105     7135 1
    7432     7105     7136 1
    7433     7106     7137 1
    7434     7106     7138 1
    7435     7106     7139 1
    7436     7140     7141 1
    7437     7140     7147 1
    7438     7140     7163 1
    7439     7140     7212 1
    7440     7141     7142 1
    7441     7141     7145 1
    7442     7142     7143 1
    7443     7142     7146 1
    7444     7143     7144 1
    7445     7144     7145 1
    7446     7145     7151 1
    7447     7146     7147 1
    7448     7146     7150 1
    7449     7147     7148 1
    7450     7148     7149 1
    7451     7148     7152 1
    7452     7149     7150 1
    7453     7149     7161 1
    7454     7153     7154 1
    7455     7153     7161 1
    7456     7154     7155 1
    7457     7154     7162 1
    7458     7155     7156 1
    7459     7155     7265 1
    7460     7156     7157 1
    7461     7156     7160 1
    7462     7157     7158 1
    7463     7158     7159 1
    7464     7159     7160 1
    7465     7160     7161 1
    7466     7163     7164 1
    7467     7163     7179 1
    7468     7163     7180 1
    7469     7164     7165 1
    7470     7164     7181 1
    7471     7164     7182 1
    7472     7165     7166 1
    7473     7165     7183 1
    7474     7165     7184 1
    7475     7166     7167 1
    7476     7166     7185 1
    7477     7166     7186 1
    7478     7167     7168 1
    7479     7167     7187 1
    7480     7167     7188 1
    7481     7168     7169 1
    7482     7168     7189 1
    7483     7168     7190 1
    7484     7169     7170 1
    7485     7169     7191 1
    7486     7169     7192 1
    7487     7170     7171 1
    7488     7170     7193 1
    7489     7170     7194 1
    7490     7171     7172 1
    7491     7171     7195 1
    7492     7171     7196 1
    7493     7172     7173 1
    7494     7172     7197 1
    7495     7172     7198 1
    7496     7173     7174 1
    7497     7173     7199 1
    7498     7173     7200 1
    7499     7174     7175 1
    7500     7174     7201 1
    7501     7174     7202 1
    7502     7175     7176 1
    7503     7175     7203 1
    7504     7175     7204 1
    7505     7176     7177 1
    7506     7176     7205 1
    7507     7176     7206 1
    7508     7177     7178 1
    7509     7177     7207 1
    7510     7177     7208 1
    7511     7178     7209 1
    7512     7178     7210 1
    7513     7178     7211 1
    7514     7212     7213 1
    7515     7212     7228 1
    7516     7212     7229 1
    7517     7213     7214 1
    7518     7213     7230 1
    7519     7213     7231 1
    7520     7214     7215 1
    7521     7214     7232 1
    7522     7214     7233 1
    7523     7215     7216 1
    7524     7215     7234 1
    7525     7215     7235 1
    7526     7216     7217 1
    7527     7216     7236 1
    7528     7216     7237 1
    7529     7217     7218 1
    7530     7217     7238 1
    7531     7217     7239 1
    7532     7218     7219 1
    7533     7218     7240 1
    7534     7218     7241 1
    7535     7219     7220 1
    7536     7219     7242 1
    7537     7219     7243 1
    7538     7220     7221 1
    7539     7220     7244 1
    7540     7220     7245 1
    7541     7221     7222 1
    7542     7221     7246 1
    7543     7221     7247 1
    7544     7222     7223 1
    7545     7222     7248 1
    7546     7222     7249 1
    7547     7223     7224 1
    7548     7223     7250 1
    7549     7223     7251 1
    7550     7224     7225 1
    7551     7224     7252 1
    7552     7224     7253 1
    7553     7225     7226 1
    7554     7225     7254 1
    7555     7225     7255 1
    7556     7226     7227 1
    7557     7226     7256 1
    7558     7226     7257 1
    7559     7227     7258 1
    7560     7227     7259 1
    7561     7227     7260 1
    7562     7261     7262 1
    7563     7261     7268 1
    7564     7261     7284 1
    7565     7261     7333 1
    7566     7262     7263 1
    7567     7262     7266 1
    7568     7263     7264 1
    7569     7263     7267 1
    7570     7264     7265 1
    7571     7265     7266 1
    7572     7266     7272 1
    7573     7267     7268 1
    7574     7267     7271 1
    7575     7268     7269 1
    7576     7269     7270 1
    7577     7269     7273 1
    7578     7270     7271 1
    7579     7270     7282 1
    7580     7274     7275 1
    7581     7274     7282 1
    7582     7275     7276 1
    7583     7275     7283 1
    7584     7276     7277 1
    7585     7276     7386 1
    7586     7277     7278 1
    7587     7277     7281 1
    7588     7278     7279 1
    7589     7279     7280 1
    7590     7280     7281 1
    7591     7281     7282 1
    7592     7284     7285 1
    7593     7284     7300 1
    7594     7284     7301 1
    7595     7285     7286 1
    7596     7285     7302 1
    7597     7285     7303 1
    7598     7286     7287 1
    7599     7286     7304 1
    7600     7286     7305 1
    7601     7287     7288 1
    7602     7287     7306 1
    7603     7287     7307 1
    7604     7288     7289 1
    7605     7288     7308 1
    7606     7288     7309 1
    7607     7289     7290 1
    7608     7289     7310 1
    7609     7289     7311 1
    7610     7290     7291 1
    7611     7290     7312 1
    7612     7290     7313 1
    7613     7291     7292 1
    7614     7291     7314 1
    7615     7291     7315 1
    7616     7292     7293 1
    7617     7292     7316 1
    7618     7292     7317 1
    7619     7293     7294 1
    7620     7293     7318 1
    7621     7293     7319 1
    7622     7294     7295 1
    7623     7294     7320 1
    7624     7294     7321 1
    7625     7295     7296 1
    7626     7295     7322 1
    7627     7295     7323 1
    7628     7296     7297 1
    7629     7296     7324 1
    7630     7296     7325 1
    7631     7297     7298 1
    7632     7297     7326 1
    7633     7297     7327 1
    7634     7298     7299 1
    7635     7298     7328 1
    7636     7298     7329 1
    7637     7299     7330 1
    7638     7299     7331 1
    7639     7299     7332 1
    7640     7333     7334 1
    7641     7333     7349 1
    7642     7333     7350 1
    7643     7334     7335 1
    7644     7334     7351 1
    7645     7334     7352 1
    7646     7335     7336 1
    7647     7335     7353 1
    7648     7335     7354 1
    7649     7336     7337 1
    7650     7336     7355 1
    7651     7336     7356 1
    7652     7337     7338 1
    7653     7337     7357 1
    7654     7337     7358 1
    7655     7338     7339 1
    7656     7338     7359 1
    7657     7338     7360 1
    7658     7339     7340 1
    7659     7339     7361 1
    7660     7339     7362 1
    7661     7340     7341 1
    7662     7340     7363 1
    7663     7340     7364 1
    7664     7341     7342 1
    7665     7341     7365 1
    7666     7341     7366 1
    7667     7342     7343 1
    7668     7342     7367 1
    7669     7342     7368 1
    7670     7343     7344 1
    7671     7343     7369 1
    7672     7343     7370 1
    7673     7344     7345 1
    7674     7344     7371 1
    7675     7344     7372 1
    7676     7345     7346 1
    7677     7345     7373 1
    7678     7345     7374 1
    7679     7346     7347 1
    7680     7346     7375 1
    7681     7346     7376 1
    7682     7347     7348 1
    7683     7347     7377 1
    7684     7347     7378 1
    7685     7348     7379 1
    7686     7348     7380 1
    7687     7348     7381 1
    7688     7382     7383 1
    7689     7382     7389 1
    7690     7382     7405 1
    7691     7382     7454 1
    7692     7383     7384 1
    7693     7383     7387 1
    7694     7384     7385 1
    7695     7384     7388 1
    7696     7385     7386 1
    7697     7386     7387 1
    7698     7387     7393 1
    7699     7388     7389 1
    7700     7388     7392 1
    7701     7389     7390 1
    7702     7390     7391 1
    7703     7390     7394 1
    7704     7391     7392 1
    7705     7391     7403 1
    7706     7395     7396 1
    7707     7395     7403 1
    7708     7396     7397 1
    7709     7396     7404 1
    7710     7397     7398 1
    7711     7397     7507 1
    7712     7398     7399 1
    7713     7398     7402 1
    7714     7399     7400 1
    7715     7400     7401 1
    7716     7401     7402 1
    7717     7402     7403 1
    7718     7405     7406 1
    7719     7405     7421 1
    7720     7405     7422 1
    7721     7406     7407 1
    7722     7406     7423 1
    7723     7406     7424 1
    7724     7407     7408 1
    7725     7407     7425 1
    7726     7407     7426 1
    7727     7408     7409 1
    7728     7408     7427 1
    7729     7408     7428 1
    7730     7409     7410 1
    7731     7409     7429 1
    7732     7409     7430 1
    7733     7410     7411 1
    7734     7410     7431 1
    7735     7410     7432 1
    7736     7411     7412 1
    7737     7411     7433 1
    7738     7411     7434 1
    7739     7412     7413 1
    7740     7412     7435 1
    7741     7412     7436 1
    7742     7413     7414 1
    7743     7413     7437 1
    7744     7413     7438 1
    7745     7414     7415 1
    7746     7414     7439 1
    7747     7414     7440 1
    7748     7415     7416 1
    7749     7415     7441 1
    7750     7415     7442 1
    7751     7416     7417 1
    7752     7416     7443 1
    7753     7416     7444 1
    7754     7417     7418 1
    7755     7417     7445 1
    7756     7417     7446 1
    7757     7418     7419 1
    7758     7418     7447 1
    7759     7418     7448 1
    7760     7419     7420 1
    7761     7419     7449 1
    7762     7419     7450 1
    7763     7420     7451 1
    7764     7420     7452 1
    7765     7420     7453 1
    7766     7454     7455 1
    7767     7454     7470 1
    7768     7454     7471 1
    7769     7455     7456 1
    7770     7455     7472 1
    7771     7455     7473 1
    7772     7456     7457 1
    7773     7456     7474 1
    7774     7456     7475 1
    7775     7457     7458 1
    7776     7457     7476 1
    7777     7457     7477 1
    7778     7458     7459 1
    7779     7458     7478 1
    7780     7458     7479 1
    7781     7459     7460 1
    7782     7459     7480 1
    7783     7459     7481 1
    7784     7460     7461 1
    7785     7460     7482 1
    7786     7460     7483 1
    7787     7461     7462 1
    7788     7461     7484 1
    7789     7461     7485 1
    7790     7462     7463 1
    7791     7462     7486 1
    7792     7462     7487 1
    7793     7463     7464 1
    7794     7463     7488 1
    7795     7463     7489 1
    7796     7464     7465 1
    7797     7464     7490 1
    7798     7464     7491 1
    7799     7465     7466 1
    7800     7465     7492 1
    7801     7465     7493 1
    7802     7466     7467 1
    7803     7466     7494 1
    7804     7466     7495 1
    7805     7467     7468 1
    7806     7467     7496 1
    7807     7467     7497 1
    7808     7468     7469 1
    7809     7468     7498 1
    7810     7468     7499 1
    7811     7469     7500 1
    7812     7469     7501 1
    7813     7469     7502 1
    7814     7503     7504 1
    7815     7503     7510 1
    7816     7503     7526 1
    7817     7503     7575 1
    7818     7504     7505 1
    7819     7504     7508 1
    7820     7505     7506 1
    7821     7505     7509 1
    7822     7506     7507 1
    7823     7507     7508 1
    7824     7508     7514 1
    7825     7509     7510 1
    7826     7509     7513 1
    7827     7510     7511 1
    7828     7511     7512 1
    7829     7511     7515 1
    7830     7512     7513 1
    7831     7512     7524 1
    7832     7516     7517 1
    7833     7516     7524 1
    7834     7517     7518 1
    7835     7517     7525 1
    7836     7518     7519 1
    7837     7518     7628 1
    7838     7519     7520 1
    7839     7519     7523 1
    7840     7520     7521 1
    7841     7521     7522 1
    7842     7522     7523 1
    7843     7523     7524 1
    7844     7526     7527 1
    7845     7526     7542 1
    7846     7526     7543 1
    7847     7527     7528 1
    7848     7527     7544 1
    7849     7527     7545 1
    7850     7528     7529 1
    7851     7528     7546 1
    7852     7528     7547 1
    7853     7529     7530 1
    7854     7529     7548 1
    7855     7529     7549 1
    7856     7530     7531 1
    7857     7530     7550 1
    7858     7530     7551 1
    7859     7531     7532 1
    7860     7531     7552 1
    7861     7531     7553 1
    7862     7532     7533 1
    7863     7532     7554 1
    7864     7532     7555 1
    7865     7533     7534 1
    7866     7533     7556 1
    7867     7533     7557 1
    7868     7534     7535 1
    7869     7534     7558 1
    7870     7534     7559 1
    7871     7535     7536 1
    7872     7535     7560 1
    7873     7535     7561 1
    7874     7536     7537 1
    7875     7536     7562 1
    7876     7536     7563 1
    7877     7537     7538 1
    7878     7537     7564 1
    7879     7537     7565 1
    7880     7538     7539 1
    7881     7538     7566 1
    7882     7538     7567 1
    7883     7539     7540 1
    7884     7539     7568 1
    7885     7539     7569 1
    7886     7540     7541 1
    7887     7540     7570 1
    7888     7540     7571 1
    7889     7541     7572 1
    7890     7541     7573 1
    7891     7541     7574 1
    7892     7575     7576 1
    7893     7575     7591 1
    7894     7575     7592 1
    7895     7576     7577 1
    7896     7576     7593 1
    7897     7576     7594 1
    7898     7577     7578 1
    7899     7577     7595 1
    7900     7577     7596 1
    7901     7578     7579 1
    7902     7578     7597 1
    7903     7578     7598 1
    7904     7579     7580 1
    7905     7579     7599 1
    7906     7579     7600 1
    7907     7580     7581 1
    7908     7580     7601 1
    7909     7580     7602 1
    7910     7581     7582 1
    7911     7581     7603 1
    7912     7581     7604 1
    7913     7582     7583 1
    7914     7582     7605 1
    7915     7582     7606 1
    7916     7583     7584 1
    7917     7583     7607 1
    7918     7583     7608 1
    7919     7584     7585 1
    7920     7584     7609 1
    7921     7584     7610 1
    7922     7585     7586 1
    7923     7585     7611 1
    7924     7585     7612 1
    7925     7586     7587 1
    7926     7586     7613 1
    7927     7586     7614 1
    7928     7587     7588 1
    7929     7587     7615 1
    7930     7587     7616 1
    7931     7588     7589 1
    7932     7588     7617 1
    7933     7588     7618 1
    7934     7589     7590 1
    7935     7589     7619 1
    7936     7589     7620 1
    7937     7590     7621 1
    7938     7590     7622 1
    7939     7590     7623 1
    7940     7624     7625 1
    7941     7624     7631 1
    7942     7624     7647 1
    7943     7624     7696 1
    7944     7625     7626 1
    7945     7625     7629 1
    7946     7626     7627 1
    7947     7626     7630 1
    7948     7627     7628 1
    7949     7628     7629 1
    7950     7629     7635 1
    7951     7630     7631 1
    7952     7630     7634 1
    7953     7631     7632 1
    7954     7632     7633 1
    7955     7632     7636 1
    7956     7633     7634 1
    7957     7633     7645 1
    7958     7637     7638 1
    7959     7637     7645 1
    7960     7638     7639 1
    7961     7638     7646 1
    7962     7639     7640 1
    7963     7639     7749 1
    7964     7640     7641 1
    7965     7640     7644 1
    7966     7641     7642 1
    7967     7642     7643 1
    7968     7643     7644 1
    7969     7644     7645 1
    7970     7647     7648 1
    7971     7647     7663 1
    7972     7647     7664 1
    7973     7648     7649 1
    7974     7648     7665 1
    7975     7648     7666 1
    7976     7649     7650 1
    7977     7649     7667 1
    7978     7649     7668 1
    7979     7650     7651 1
    7980     7650     7669 1
    7981     7650     7670 1
    7982     7651     7652 1
    7983     7651     7671 1
    7984     7651     7672 1
    7985     7652     7653 1
    7986     7652     7673 1
    7987     7652     7674 1
    7988     7653     7654 1
    7989     7653     7675 1
    7990     7653     7676 1
    7991     7654     7655 1
    7992     7654     7677 1
    7993     7654     7678 1
    7994     7655     7656 1
    7995     7655     7679 1
    7996     7655     7680 1
    7997     7656     7657 1
    7998     7656     7681 1
    7999     7656     7682 1
    8000     7657     7658 1
    8001     7657     7683 1
    8002     7657     7684 1
    8003     7658     7659 1
    8004     7658     7685 1
    8005     7658     7686 1
    8006     7659     7660 1
    8007     7659     7687 1
    8008     7659     7688 1
    8009     7660     7661 1
    8010     7660     7689 1
    8011     7660     7690 1
    8012     7661     7662 1
    8013     7661     7691 1
    8014     7661     7692 1
    8015     7662     7693 1
    8016     7662     7694 1
    8017     7662     7695 1
    8018     7696     7697 1
    8019     7696     7712 1
    8020     7696     7713 1
    8021     7697     7698 1
    8022     7697     7714 1
    8023     7697     7715 1
    8024     7698     7699 1
    8025     7698     7716 1
    8026     7698     7717 1
    8027     7699     7700 1
    8028     7699     7718 1
    8029     7699     7719 1
    8030     7700     7701 1
    8031     7700     7720 1
    8032     7700     7721 1
    8033     7701     7702 1
    8034     7701     7722 1
    8035     7701     7723 1
    8036     7702     7703 1
    8037     7702     7724 1
    8038     7702     7725 1
    8039     7703     7704 1
    8040     7703     7726 1
    8041     7703     7727 1
    8042     7704     7705 1
    8043     7704     7728 1
    8044     7704     7729 1
    8045     7705     7706 1
    8046     7705     7730 1
    8047     7705     7731 1
    8048     7706     7707 1
    8049     7706     7732 1
    8050     7706     7733 1
    8051     7707     7708 1
    8052     7707     7734 1
    8053     7707     7735 1
    8054     7708     7709 1
    8055     7708     7736 1
    8056     7708     7737 1
    8057     7709     7710 1
    8058     7709     7738 1
    8059     7709     7739 1
    8060     7710     7711 1
    8061     7710     7740 1
    8062     7710     7741 1
    8063     7711     7742 1
    8064     7711     7743 1
    8065     7711     7744 1
    8066     7745     7746 1
    8067     7745     7752 1
    8068     7745     7768 1
    8069     7745     7817 1
    8070     7746     7747 1
    8071     7746     7750 1
    8072     7747     7748 1
    8073     7747     7751 1
    8074     7748     7749 1
    8075     7749     7750 1
    8076     7750     7756 1
    8077     7751     7752 1
    8078     7751     7755 1
    8079     7752     7753 1
    8080     7753     7754 1
    8081     7753     7757 1
    8082     7754     7755 1
    8083     7754     7766 1
    8084     7758     7759 1
    8085     7758     7766 1
    8086     7759     7760 1
    8087     7759     7767 1
    8088     7760     7761 1
    8089     7760     7870 1
    8090     7761     7762 1
    8091     7761     7765 1
    8092     7762     7763 1
    8093     7763     7764 1
    8094     7764     7765 1
    8095     7765     7766 1
    8096     7768     7769 1
    8097     7768     7784 1
    8098     7768     7785 1
    8099     7769     7770 1
    8100     7769     7786 1
    8101     7769     7787 1
    8102     7770     7771 1
    8103     7770     7788 1
    8104     7770     7789 1
    8105     7771     7772 1
    8106     7771     7790 1
    8107     7771     7791 1
    8108     7772     7773 1
    8109     7772     7792 1
    8110     7772     7793 1
    8111     7773     7774 1
    8112     7773     7794 1
    8113     7773     7795 1
    8114     7774     7775 1
    8115     7774     7796 1
    8116     7774     7797 1
    8117     7775     7776 1
    8118     7775     7798 1
    8119     7775     7799 1
    8120     7776     7777 1
    8121     7776     7800 1
    8122     7776     7801 1
    8123     7777     7778 1
    8124     7777     7802 1
    8125     7777     7803 1
    8126     7778     7779 1
    8127     7778     7804 1
    8128     7778     7805 1
    8129     7779     7780 1
    8130     7779     7806 1
    8131     7779     7807 1
    8132     7780     7781 1
    8133     7780     7808 1
    8134     7780     7809 1
    8135     7781     7782 1
    8136     7781     7810 1
    8137     7781     7811 1
    8138     7782     7783 1
    8139     7782     7812 1
    8140     7782     7813 1
    8141     7783     7814 1
    8142     7783     7815 1
    8143     7783     7816 1
    8144     7817     7818 1
    8145     7817     7833 1
    8146     7817     7834 1
    8147     7818     7819 1
    8148     7818     7835 1
    8149     7818     7836 1
    8150     7819     7820 1
    8151     7819     7837 1
    8152     7819     7838 1
    8153     7820     7821 1
    8154     7820     7839 1
    8155     7820     7840 1
    8156     7821     7822 1
    8157     7821     7841 1
    8158     7821     7842 1
    8159     7822     7823 1
    8160     7822     7843 1
    8161     7822     7844 1
    8162     7823     7824 1
    8163     7823     7845 1
    8164     7823     7846 1
    8165     7824     7825 1
    8166     7824     7847 1
    8167     7824     7848 1
    8168     7825     7826 1
    8169     7825     7849 1
    8170     7825     7850 1
    8171     7826     7827 1
    8172     7826     7851 1
    8173     7826     7852 1
    8174     7827     7828 1
    8175     7827     7853 1
    8176     7827     7854 1
    8177     7828     7829 1
    8178     7828     7855 1
    8179     7828     7856 1
    8180     7829     7830 1
    8181     7829     7857 1
    8182     7829     7858 1
    8183     7830     7831 1
    8184     7830     7859 1
    8185     7830     7860 1
    8186     7831     7832 1
    8187     7831     7861 1
    8188     7831     7862 1
    8189     7832     7863 1
    8190     7832     7864 1
    8191     7832     7865 1
    8192     7866     7867 1
    8193     7866     7873 1
    8194     7866     7889 1
    8195     7866     7938 1
    8196     7867     7868 1
    8197     7867     7871 1
    8198     7868     7869 1
    8199     7868     7872 1
    8200     7869     7870 1
    8201     7870     7871 1
    8202     7871     7877 1
    8203     7872     7873 1
    8204     7872     7876 1
    8205     7873     7874 1
    8206     7874     7875 1
    8207     7874     7878 1
    8208     7875     7876 1
    8209     7875     7887 1
    8210     7879     7880 1
    8211     7879     7887 1
    8212     7880     7881 1
    8213     7880     7888 1
    8214     7881     7882 1
    8215     7881     7991 1
    8216     7882     7883 1
    8217     7882     7886 1
    8218     7883     7884 1
    8219     7884     7885 1
    8220     7885     7886 1
    8221     7886     7887 1
    8222     7889     7890 1
    8223     7889     7905 1
    8224     7889     7906 1
    8225     7890     7891 1
    8226     7890     7907 1
    8227     7890     7908 1
    8228     7891     7892 1
    8229     7891     7909 1
    8230     7891     7910 1
    8231     7892     7893 1
    8232     7892     7911 1
    8233     7892     7912 1
    8234     7893     7894 1
    8235     7893     7913 1
    8236     7893     7914 1
    8237     7894     7895 1
    8238     7894     7915 1
    8239     7894     7916 1
    8240     7895     7896 1
    8241     7895     7917 1
    8242     7895     7918 1
    8243     7896     7897 1
    8244     7896     7919 1
    8245     7896     7920 1
    8246     7897     7898 1
    8247     7897     7921 1
    8248     7897     7922 1
    8249     7898     7899 1
    8250     7898     7923 1
    8251     7898     7924 1
    8252     7899     7900 1
    8253     7899     7925 1
    8254     7899     7926 1
    8255     7900     7901 1
    8256     7900     7927 1
    8257     7900     7928 1
    8258     7901     7902 1
    8259     7901     7929 1
    8260     7901     7930 1
    8261     7902     7903 1
    8262     7902     7931 1
    8263     7902     7932 1
    8264     7903     7904 1
    8265     7903     7933 1
    8266     7903     7934 1
    8267     7904     7935 1
    8268     7904     7936 1
    8269     7904     7937 1
    8270     7938     7939 1
    8271     7938     7954 1
    8272     7938     7955 1
    8273     7939     7940 1
    8274     7939     7956 1
    8275     7939     7957 1
    8276     7940     7941 1
    8277     7940     7958 1
    8278     7940     7959 1
    8279     7941     7942 1
    8280     7941     7960 1
    8281     7941     7961 1
    8282     7942     7943 1
    8283     7942     7962 1
    8284     7942     7963 1
    8285     7943     7944 1
    8286     7943     7964 1
    8287     7943     7965 1
    8288     7944     7945 1
    8289     7944     7966 1
    8290     7944     7967 1
    8291     7945     7946 1
    8292     7945     7968 1
    8293     7945     7969 1
    8294     7946     7947 1
    8295     7946     7970 1
    8296     7946     7971 1
    8297     7947     7948 1
    8298     7947     7972 1
    8299     7947     7973 1
    8300     7948     7949 1
    8301     7948     7974 1
    8302     7948     7975 1
    8303     7949     7950 1
    8304     7949     7976 1
    8305     7949     7977 1
    8306     7950     7951 1
    8307     7950     7978 1
    8308     7950     7979 1
    8309     7951     7952 1
    8310     7951     7980 1
    8311     7951     7981 1
    8312     7952     7953 1
    8313     7952     7982 1
    8314     7952     7983 1
    8315     7953     7984 1
    8316     7953     7985 1
    8317     7953     7986 1
    8318     7987     7988 1
    8319     7987     7994 1
    8320     7987     8010 1
    8321     7987     8059 1
    8322     7988     7989 1
    8323     7988     7992 1
    8324     7989     7990 1
    8325     7989     7993 1
    8326     7990     7991 1
    8327     7991     7992 1
    8328     7992     7998 1
    8329     7993     7994 1
    8330     7993     7997 1
    8331     7994     7995 1
    8332     7995     7996 1
    8333     7995     7999 1
    8334     7996     7997 1
    8335     7996     8008 1
    8336     8000     8001 1
    8337     8000     8008 1
    8338     8001     8002 1
    8339     8001     8009 1
    8340     8002     8003 1
    8341     8002     8112 1
    8342     8003     8004 1
    8343     8003     8007 1
    8344     8004     8005 1
    8345     8005     8006 1
    8346     8006     8007 1
    8347     8007     8008 1
    8348     8010     8011 1
    8349     8010     8026 1
    8350     8010     8027 1
    8351     8011     8012 1
    8352     8011     8028 1
    8353     8011     8029 1
    8354     8012     8013 1
    8355     8012     8030 1
    8356     8012     8031 1
    8357     8013     8014 1
    8358     8013     8032 1
    8359     8013     8033 1
    8360     8014     8015 1
    8361     8014     8034 1
    8362     8014     8035 1
    8363     8015     8016 1
    8364     8015     8036 1
    8365     8015     8037 1
    8366     8016     8017 1
    8367     8016     8038 1
    8368     8016     8039 1
    8369     8017     8018 1
    8370     8017     8040 1
    8371     8017     8041 1
    8372     8018     8019 1
    8373     8018     8042 1
    8374     8018     8043 1
    8375     8019     8020 1
    8376     8019     8044 1
    8377     8019     8045 1
    8378     8020     8021 1
    8379     8020     8046 1
    8380     8020     8047 1
    8381     8021     8022 1
    8382     8021     8048 1
    8383     8021     8049 1
    8384     8022     8023 1
    8385     8022     8050 1
    8386     8022     8051 1
    8387     8023     8024 1
    8388     8023     8052 1
    8389     8023     8053 1
    8390     8024     8025 1
    8391     8024     8054 1
    8392     8024     8055 1
    8393     8025     8056 1
    8394     8025     8057 1
    8395     8025     8058 1
    8396     8059     8060 1
    8397     8059     8075 1
    8398     8059     8076 1
    8399     8060     8061 1
    8400     8060     8077 1
    8401     8060     8078 1
    8402     8061     8062 1
    8403     8061     8079 1
    8404     8061     8080 1
    8405     8062     8063 1
    8406     8062     8081 1
    8407     8062     8082 1
    8408     8063     8064 1
    8409     8063     8083 1
    8410     8063     8084 1
    8411     8064     8065 1
    8412     8064     8085 1
    8413     8064     8086 1
    8414     8065     8066 1
    8415     8065     8087 1
    8416     8065     8088 1
    8417     8066     8067 1
    8418     8066     8089 1
    8419     8066     8090 1
    8420     8067     8068 1
    8421     8067     8091 1
    8422     8067     8092 1
    8423     8068     8069 1
    8424     8068     8093 1
    8425     8068     8094 1
    8426     8069     8070 1
    8427     8069     8095 1
    8428     8069     8096 1
    8429     8070     8071 1
    8430     8070     8097 1
    8431     8070     8098 1
    8432     8071     8072 1
    8433     8071     8099 1
    8434     8071     8100 1
    8435     8072     8073 1
    8436     8072     8101 1
    8437     8072     8102 1
    8438     8073     8074 1
    8439     8073     8103 1
    8440     8073     8104 1
    8441     8074     8105 1
    8442     8074     8106 1
    8443     8074     8107 1
    8444     8108     8109 1
    8445     8108     8115 1
    8446     8108     8131 1
    8447     8108     8180 1
    8448     8109     8110 1
    8449     8109     8113 1
    8450     8110     8111 1
    8451     8110     8114 1
    8452     8111     8112 1
    8453     8112     8113 1
    8454     8113     8119 1
    8455     8114     8115 1
    8456     8114     8118 1
    8457     8115     8116 1
    8458     8116     8117 1
    8459     8116     8120 1
    8460     8117     8118 1
    8461     8117     8129 1
    8462     8121     8122 1
    8463     8121     8129 1
    8464     8122     8123 1
    8465     8122     8130 1
    8466     8123     8124 1
    8467     8123     8233 1
    8468     8124     8125 1
    8469     8124     8128 1
    8470     8125     8126 1
    8471     8126     8127 1
    8472     8127     8128 1
    8473     8128     8129 1
    8474     8131     8132 1
    8475     8131     8147 1
    8476     8131     8148 1
    8477     8132     8133 1
    8478     8132     8149 1
    8479     8132     8150 1
    8480     8133     8134 1
    8481     8133     8151 1
    8482     8133     8152 1
    8483     8134     8135 1
    8484     8134     8153 1
    8485     8134     8154 1
    8486     8135     8136 1
    8487     8135     8155 1
    8488     8135     8156 1
    8489     8136     8137 1
    8490     8136     8157 1
    8491     8136     8158 1
    8492     8137     8138 1
    8493     8137     8159 1
    8494     8137     8160 1
    8495     8138     8139 1
    8496     8138     8161 1
    8497     8138     8162 1
    8498     8139     8140 1
    8499     8139     8163 1
    8500     8139     8164 1
    8501     8140     8141 1
    8502     8140     8165 1
    8503     8140     8166 1
    8504     8141     8142 1
    8505     8141     8167 1
    8506     8141     8168 1
    8507     8142     8143 1
    8508     8142     8169 1
    8509     8142     8170 1
    8510     8143     8144 1
    8511     8143     8171 1
    8512     8143     8172 1
    8513     8144     8145 1
    8514     8144     8173 1
    8515     8144     8174 1
    8516     8145     8146 1
    8517     8145     8175 1
    8518     8145     8176 1
    8519     8146     8177 1
    8520     8146     8178 1
    8521     8146     8179 1
    8522     8180     8181 1
    8523     8180     8196 1
    8524     8180     8197 1
    8525     8181     8182 1
    8526     8181     8198 1
    8527     8181     8199 1
    8528     8182     8183 1
    8529     8182     8200 1
    8530     8182     8201 1
    8531     8183     8184 1
    8532     8183     8202 1
    8533     8183     8203 1
    8534     8184     8185 1
    8535     8184     8204 1
    8536     8184     8205 1
    8537     8185     8186 1
    8538     8185     8206 1
    8539     8185     8207 1
    8540     8186     8187 1
    8541     8186     8208 1
    8542     8186     8209 1
    8543     8187     8188 1
    8544     8187     8210 1
    8545     8187     8211 1
    8546     8188     8189 1
    8547     8188     8212 1
    8548     8188     8213 1
    8549     8189     8190 1
    8550     8189     8214 1
    8551     8189     8215 1
    8552     8190     8191 1
    8553     8190     8216 1
    8554     8190     8217 1
    8555     8191     8192 1
    8556     8191     8218 1
    8557     8191     8219 1
    8558     8192     8193 1
    8559     8192     8220 1
    8560     8192     8221 1
    8561     8193     8194 1
    8562     8193     8222 1
    8563     8193     8223 1
    8564     8194     8195 1
    8565     8194     8224 1
    8566     8194     8225 1
    8567     8195     8226 1
    8568     8195     8227 1
    8569     8195     8228 1
    8570     8229     8230 1
    8571     8229     8236 1
    8572     8229     8252 1
    8573     8229     8301 1
    8574     8230     8231 1
    8575     8230     8234 1
    8576     8231     8232 1
    8577     8231     8235 1
    8578     8232     8233 1
    8579     8233     8234 1
    8580     8234     8240 1
    8581     8235     8236 1
    8582     8235     8239 1
    8583     8236     8237 1
    8584     8237     8238 1
    8585     8237     8241 1
    8586     8238     8239 1
    8587     8238     8250 1
    8588     8242     8243 1
    8589     8242     8250 1
    8590     8243     8244 1
    8591     8243     8251 1
    8592     8244     8245 1
    8593     8244     8354 1
    8594     8245     8246 1
    8595     8245     8249 1
    8596     8246     8247 1
    8597     8247     8248 1
    8598     8248     8249 1
    8599     8249     8250 1
    8600     8252     8253 1
    8601     8252     8268 1
    8602     8252     8269 1
    8603     8253     8254 1
    8604     8253     8270 1
    8605     8253     8271 1
    8606     8254     8255 1
    8607     8254     8272 1
    8608     8254     8273 1
    8609     8255     8256 1
    8610     8255     8274 1
    8611     8255     8275 1
    8612     8256     8257 1
    8613     8256     8276 1
    8614     8256     8277 1
    8615     8257     8258 1
    8616     8257     8278 1
    8617     8257     8279 1
    8618     8258     8259 1
    8619     8258     8280 1
    8620     8258     8281 1
    8621     8259     8260 1
    8622     8259     8282 1
    8623     8259     8283 1
    8624     8260     8261 1
    8625     8260     8284 1
    8626     8260     8285 1
    8627     8261     8262 1
    8628     8261     8286 1
    8629     8261     8287 1
    8630     8262     8263 1
    8631     8262     8288 1
    8632     8262     8289 1
    8633     8263     8264 1
    8634     8263     8290 1
    8635     8263     8291 1
    8636     8264     8265 1
    8637     8264     8292 1
    8638     8264     8293 1
    8639     8265     8266 1
    8640     8265     8294 1
    8641     8265     8295 1
    8642     8266     8267 1
    8643     8266     8296 1
    8644     8266     8297 1
    8645     8267     8298 1
    8646     8267     8299 1
    8647     8267     8300 1
    8648     8301     8302 1
    8649     8301     8317 1
    8650     8301     8318 1
    8651     8302     8303 1
    8652     8302     8319 1
    8653     8302     8320 1
    8654     8303     8304 1
    8655     8303     8321 1
    8656     8303     8322 1
    8657     8304     8305 1
    8658     8304     8323 1
    8659     8304     8324 1
    8660     8305     8306 1
    8661     8305     8325 1
    8662     8305     8326 1
    8663     8306     8307 1
    8664     8306     8327 1
    8665     8306     8328 1
    8666     8307     8308 1
    8667     8307     8329 1
    8668     8307     8330 1
    8669     8308     8309 1
    8670     8308     8331 1
    8671     8308     8332 1
    8672     8309     8310 1
    8673     8309     8333 1
    8674     8309     8334 1
    8675     8310     8311 1
    8676     8310     8335 1
    8677     8310     8336 1
    8678     8311     8312 1
    8679     8311     8337 1
    8680     8311     8338 1
    8681     8312     8313 1
    8682     8312     8339 1
    8683     8312     8340 1
    8684     8313     8314 1
    8685     8313     8341 1
    8686     8313     8342 1
    8687     8314     8315 1
    8688     8314     8343 1
    8689     8314     8344 1
    8690     8315     8316 1
    8691     8315     8345 1
    8692     8315     8346 1
    8693     8316     8347 1
    8694     8316     8348 1
    8695     8316     8349 1
    8696     8350     8351 1
    8697     8350     8357 1
    8698     8350     8373 1
    8699     8350     8422 1
    8700     8351     8352 1
    8701     8351     8355 1
    8702     8352     8353 1
    8703     8352     8356 1
    8704     8353     8354 1
    8705     8354     8355 1
    8706     8355     8361 1
    8707     8356     8357 1
    8708     8356     8360 1
    8709     8357     8358 1
    8710     8358     8359 1
    8711     8358     8362 1
    8712     8359     8360 1
    8713     8359     8371 1
    8714     8363     8364 1
    8715     8363     8371 1
    8716     8364     8365 1
    8717     8364     8372 1
    8718     8365     8366 1
    8719     8365     8475 1
    8720     8366     8367 1
    8721     8366     8370 1
    8722     8367     8368 1
    8723     8368     8369 1
    8724     8369     8370 1
    8725     8370     8371 1
    8726     8373     8374 1
    8727     8373     8389 1
    8728     8373     8390 1
    8729     8374     8375 1
    8730     8374     8391 1
    8731     8374     8392 1
    8732     8375     8376 1
    8733     8375     8393 1
    8734     8375     8394 1
    8735     8376     8377 1
    8736     8376     8395 1
    8737     8376     8396 1
    8738     8377     8378 1
    8739     8377     8397 1
    8740     8377     8398 1
    8741     8378     8379 1
    8742     8378     8399 1
    8743     8378     8400 1
    8744     8379     8380 1
    8745     8379     8401 1
    8746     8379     8402 1
    8747     8380     8381 1
    8748     8380     8403 1
    8749     8380     8404 1
    8750     8381     8382 1
    8751     8381     8405 1
    8752     8381     8406 1
    8753     8382     8383 1
    8754     8382     8407 1
    8755     8382     8408 1
    8756     8383     8384 1
    8757     8383     8409 1
    8758     8383     8410 1
    8759     8384     8385 1
    8760     8384     8411 1
    8761     8384     8412 1
    8762     8385     8386 1
    8763     8385     8413 1
    8764     8385     8414 1
    8765     8386     8387 1
    8766     8386     8415 1
    8767     8386     8416 1
    8768     8387     8388 1
    8769     8387     8417 1
    8770     8387     8418 1
    8771     8388     8419 1
    8772     8388     8420 1
    8773     8388     8421 1
    8774     8422     8423 1
    8775     8422     8438 1
    8776     8422     8439 1
    8777     8423     8424 1
    8778     8423     8440 1
    8779     8423     8441 1
    8780     8424     8425 1
    8781     8424     8442 1
    8782     8424     8443 1
    8783     8425     8426 1
    8784     8425     8444 1
    8785     8425     8445 1
    8786     8426     8427 1
    8787     8426     8446 1
    8788     8426     8447 1
    8789     8427     8428 1
    8790     8427     8448 1
    8791     8427     8449 1
    8792     8428     8429 1
    8793     8428     8450 1
    8794     8428     8451 1
    8795     8429     8430 1
    8796     8429     8452 1
    8797     8429     8453 1
    8798     8430     8431 1
    8799     8430     8454 1
    8800     8430     8455 1
    8801     8431     8432 1
    8802     8431     8456 1
    8803     8431     8457 1
    8804     8432     8433 1
    8805     8432     8458 1
    8806     8432     8459 1
    8807     8433     8434 1
    8808     8433     8460 1
    8809     8433     8461 1
    8810     8434     8435 1
    8811     8434     8462 1
    8812     8434     8463 1
    8813     8435     8436 1
    8814     8435     8464 1
    8815     8435     8465 1
    8816     8436     8437 1
    8817     8436     8466 1
    8818     8436     8467 1
    8819     8437     8468 1
    8820     8437     8469 1
    8821     8437     8470 1
    8822     8471     8472 1
    8823     8471     8478 1
    8824     8471     8494 1
    8825     8471     8543 1
    8826     8472     8473 1
    8827     8472     8476 1
    8828     8473     8474 1
    8829     8473     8477 1
    8830     8474     8475 1
    8831     8475     8476 1
    8832     8476     8482 1
    8833     8477     8478 1
    8834     8477     8481 1
    8835     8478     8479 1
    8836     8479     8480 1
    8837     8479     8483 1
    8838     8480     8481 1
    8839     8480     8492 1
    8840     8484     8485 1
    8841     8484     8492 1
    8842     8485     8486 1
    8843     8485     8493 1
    8844     8486     8487 1
    8845     8486     8596 1
    8846     8487     8488 1
    8847     8487     8491 1
    8848     8488     8489 1
    8849     8489     8490 1
    8850     8490     8491 1
    8851     8491     8492 1
    8852     8494     8495 1
    8853     8494     8510 1
    8854     8494     8511 1
    8855     8495     8496 1
    8856     8495     8512 1
    8857     8495     8513 1
    8858     8496     8497 1
    8859     8496     8514 1
    8860     8496     8515 1
    8861     8497     8498 1
    8862     8497     8516 1
    8863     8497     8517 1
    8864     8498     8499 1
    8865     8498     8518 1
    8866     8498     8519 1
    8867     8499     8500 1
    8868     8499     8520 1
    8869     8499     8521 1
    8870     8500     8501 1
    8871     8500     8522 1
    8872     8500     8523 1
    8873     8501     8502 1
    8874     8501     8524 1
    8875     8501     8525 1
    8876     8502     8503 1
    8877     8502     8526 1
    8878     8502     8527 1
    8879     8503     8504 1
    8880     8503     8528 1
    8881     8503     8529 1
    8882     8504     8505 1
    8883     8504     8530 1
    8884     8504     8531 1
    8885     8505     8506 1
    8886     8505     8532 1
    8887     8505     8533 1
    8888     8506     8507 1
    8889     8506     8534 1
    8890     8506     8535 1
    8891     8507     8508 1
    8892     8507     8536 1
    8893     8507     8537 1
    8894     8508     8509 1
    8895     8508     8538 1
    8896     8508     8539 1
    8897     8509     8540 1
    8898     8509     8541 1
    8899     8509     8542 1
    8900     8543     8544 1
    8901     8543     8559 1
    8902     8543     8560 1
    8903     8544     8545 1
    8904     8544     8561 1
    8905     8544     8562 1
    8906     8545     8546 1
    8907     8545     8563 1
    8908     8545     8564 1
    8909     8546     8547 1
    8910     8546     8565 1
    8911     8546     8566 1
    8912     8547     8548 1
    8913     8547     8567 1
    8914     8547     8568 1
    8915     8548     8549 1
    8916     8548     8569 1
    8917     8548     8570 1
    8918     8549     8550 1
    8919     8549     8571 1
    8920     8549     8572 1
    8921     8550     8551 1
    8922     8550     8573 1
    8923     8550     8574 1
    8924     8551     8552 1
    8925     8551     8575 1
    8926     8551     8576 1
    8927     8552     8553 1
    8928     8552     8577 1
    8929     8552     8578 1
    8930     8553     8554 1
    8931     8553     8579 1
    8932     8553     8580 1
    8933     8554     8555 1
    8934     8554     8581 1
    8935     8554     8582 1
    8936     8555     8556 1
    8937     8555     8583 1
    8938     8555     8584 1
    8939     8556     8557 1
    8940     8556     8585 1
    8941     8556     8586 1
    8942     8557     8558 1
    8943     8557     8587 1
    8944     8557     8588 1
    8945     8558     8589 1
    8946     8558     8590 1
    8947     8558     8591 1
    8948     8592     8593 1
    8949     8592     8599 1
    8950     8592     8615 1
    8951     8592     8664 1
    8952     8593     8594 1
    8953     8593     8597 1
    8954     8594     8595 1
    8955     8594     8598 1
    8956     8595     8596 1
    8957     8596     8597 1
    8958     8597     8603 1
    8959     8598     8599 1
    8960     8598     8602 1
    8961     8599     8600 1
    8962     8600     8601 1
    8963     8600     8604 1
    8964     8601     8602 1
    8965     8601     8613 1
    8966     8605     8606 1
    8967     8605     8613 1
    8968     8606     8607 1
    8969     8606     8614 1
    8970     8607     8608 1
    8971     8607     8717 1
    8972     8608     8609 1
    8973     8608     8612 1
    8974     8609     8610 1
    8975     8610     8611 1
    8976     8611     8612 1
    8977     8612     8613 1
    8978     8615     8616 1
    8979     8615     8631 1
    8980     8615     8632 1
    8981     8616     8617 1
    8982     8616     8633 1
    8983     8616     8634 1
    8984     8617     8618 1
    8985     8617     8635 1
    8986     8617     8636 1
    8987     8618     8619 1
    8988     8618     8637 1
    8989     8618     8638 1
    8990     8619     8620 1
    8991     8619     8639 1
    8992     8619     8640 1
    8993     8620     8621 1
    8994     8620     8641 1
    8995     8620     8642 1
    8996     8621     8622 1
    8997     8621     8643 1
    8998     8621     8644 1
    8999     8622     8623 1
    9000     8622     8645 1
    9001     8622     8646 1
    9002     8623     8624 1
    9003     8623     8647 1
    9004     8623     8648 1
    9005     8624     8625 1
    9006     8624     8649 1
    9007     8624     8650 1
    9008     8625     8626 1
    9009     8625     8651 1
    9010     8625     8652 1
    9011     8626     8627 1
    9012     8626     8653 1
    9013     8626     8654 1
    9014     8627     8628 1
    9015     8627     8655 1
    9016     8627     8656 1
    9017     8628     8629 1
    9018     8628     8657 1
    9019     8628     8658 1
    9020     8629     8630 1
    9021     8629     8659 1
    9022     8629     8660 1
    9023     8630     8661 1
    9024     8630     8662 1
    9025     8630     8663 1
    9026     8664     8665 1
    9027     8664     8680 1
    9028     8664     8681 1
    9029     8665     8666 1
    9030     8665     8682 1
    9031     8665     8683 1
    9032     8666     8667 1
    9033     8666     8684 1
    9034     8666     8685 1
    9035     8667     8668 1
    9036     8667     8686 1
    9037     8667     8687 1
    9038     8668     8669 1
    9039     8668     8688 1
    9040     8668     8689 1
    9041     8669     8670 1
    9042     8669     8690 1
    9043     8669     8691 1
    9044     8670     8671 1
    9045     8670     8692 1
    9046     8670     8693 1
    9047     8671     8672 1
    9048     8671     8694 1
    9049     8671     8695 1
    9050     8672     8673 1
    9051     8672     8696 1
    9052     8672     8697 1
    9053     8673     8674 1
    9054     8673     8698 1
    9055     8673     8699 1
    9056     8674     8675 1
    9057     8674     8700 1
    9058     8674     8701 1
    9059     8675     8676 1
    9060     8675     8702 1
    9061     8675     8703 1
    9062     8676     8677 1
    9063     8676     8704 1
    9064     8676     8705 1
    9065     8677     8678 1
    9066     8677     8706 1
    9067     8677     8707 1
    9068     8678     8679 1
    9069     8678     8708 1
    9070     8678     8709 1
    9071     8679     8710 1
    9072     8679     8711 1
    9073     8679     8712 1
    9074     8713     8714 1
    9075     8713     8720 1
    9076     8713     8736 1
    9077     8713     8785 1
    9078     8714     8715 1
    9079     8714     8718 1
    9080     8715     8716 1
    9081     8715     8719 1
    9082     8716     8717 1
    9083     8717     8718 1
    9084     8718     8724 1
    9085     8719     8720 1
    9086     8719     8723 1
    9087     8720     8721 1
    9088     8721     8722 1
    9089     8721     8725 1
    9090     8722     8723 1
    9091     8722     8734 1
    9092     8726     8727 1
    9093     8726     8734 1
    9094     8727     8728 1
    9095     8727     8735 1
    9096     8728     8729 1
    9097     8728     8838 1
    9098     8729     8730 1
    9099     8729     8733 1
    9100     8730     8731 1
    9101     8731     8732 1
    9102     8732     8733 1
    9103     8733     8734 1
    9104     8736     8737 1
    9105     8736     8752 1
    9106     8736     8753 1
    9107     8737     8738 1
    9108     8737     8754 1
    9109     8737     8755 1
    9110     8738     8739 1
    9111     8738     8756 1
    9112     8738     8757 1
    9113     8739     8740 1
    9114     8739     8758 1
    9115     8739     8759 1
    9116     8740     8741 1
    9117     8740     8760 1
    9118     8740     8761 1
    9119     8741     8742 1
    9120     8741     8762 1
    9121     8741     8763 1
    9122     8742     8743 1
    9123     8742     8764 1
    9124     8742     8765 1
    9125     8743     8744 1
    9126     8743     8766 1
    9127     8743     8767 1
    9128     8744     8745 1
    9129     8744     8768 1
    9130     8744     8769 1
    9131     8745     8746 1
    9132     8745     8770 1
    9133     8745     8771 1
    9134     8746     8747 1
    9135     8746     8772 1
    9136     8746     8773 1
    9137     8747     8748 1
    9138     8747     8774 1
    9139     8747     8775 1
    9140     8748     8749 1
    9141     8748     8776 1
    9142     8748     8777 1
    9143     8749     8750 1
    9144     8749     8778 1
    9145     8749     8779 1
    9146     8750     8751 1
    9147     8750     8780 1
    9148     8750     8781 1
    9149     8751     8782 1
    9150     8751     8783 1
    9151     8751     8784 1
    9152     8785     8786 1
    9153     8785     8801 1
    9154     8785     8802 1
    9155     8786     8787 1
    9156     8786     8803 1
    9157     8786     8804 1
    9158     8787     8788 1
    9159     8787     8805 1
    9160     8787     8806 1
    9161     8788     8789 1
    9162     8788     8807 1
    9163     8788     8808 1
    9164     8789     8790 1
    9165     8789     8809 1
    9166     8789     8810 1
    9167     8790     8791 1
    9168     8790     8811 1
    9169     8790     8812 1
    9170     8791     8792 1
    9171     8791     8813 1
    9172     8791     8814 1
    9173     8792     8793 1
    9174     8792     8815 1
    9175     8792     8816 1
    9176     8793     8794 1
    9177     8793     8817 1
    9178     8793     8818 1
    9179     8794     8795 1
    9180     8794     8819 1
    9181     8794     8820 1
    9182     8795     8796 1
    9183     8795     8821 1
    9184     8795     8822 1
    9185     8796     8797 1
    9186     8796     8823 1
    9187     8796     8824 1
    9188     8797     8798 1
    9189     8797     8825 1
    9190     8797     8826 1
    9191     8798     8799 1
    9192     8798     8827 1
    9193     8798     8828 1
    9194     8799     8800 1
    9195     8799     8829 1
    9196     8799     8830 1
    9197     8800     8831 1
    9198     8800     8832 1
    9199     8800     8833 1
    9200     8834     8835 1
    9201     8834     8841 1
    9202     8834     8857 1
    9203     8834     8906 1
    9204     8835     8836 1
    9205     8835     8839 1
    9206     8836     8837 1
    9207     8836     8840 1
    9208     8837     8838 1
    9209     8838     8839 1
    9210     8839     8845 1
    9211     8840     8841 1
    9212     8840     8844 1
    9213     8841     8842 1
    9214     8842     8843 1
    9215     8842     8846 1
    9216     8843     8844 1
    9217     8843     8855 1
    9218     8847     8848 1
    9219     8847     8855 1
    9220     8848     8849 1
    9221     8848     8856 1
    9222     8849     8850 1
    9223     8849     8959 1
    9224     8850     8851 1
    9225     8850     8854 1
    9226     8851     8852 1
    9227     8852     8853 1
    9228     8853     8854 1
    9229     8854     8855 1
    9230     8857     8858 1
    9231     8857     8873 1
    9232     8857     8874 1
    9233     8858     8859 1
    9234     8858     8875 1
    9235     8858     8876 1
    9236     8859     8860 1
    9237     8859     8877 1
    9238     8859     8878 1
    9239     8860     8861 1
    9240     8860     8879 1
    9241     8860     8880 1
    9242     8861     8862 1
    9243     8861     8881 1
    9244     8861     8882 1
    9245     8862     8863 1
    9246     8862     8883 1
    9247     8862     8884 1
    9248     8863     8864 1
    9249     8863     8885 1
    9250     8863     8886 1
    9251     8864     8865 1
    9252     8864     8887 1
    9253     8864     8888 1
    9254     8865     8866 1
    9255     8865     8889 1
    9256     8865     8890 1
    9257     8866     8867 1
    9258     8866     8891 1
    9259     8866     8892 1
    9260     8867     8868 1
    9261     8867     8893 1
    9262     8867     8894 1
    9263     8868     8869 1
    9264     8868     8895 1
    9265     8868     8896 1
    9266     8869     8870 1
    9267     8869     8897 1
    9268     8869     8898 1
    9269     8870     8871 1
    9270     8870     8899 1
    9271     8870     8900 1
    9272     8871     8872 1
    9273     8871     8901 1
    9274     8871     8902 1
    9275     8872     8903 1
    9276     8872     8904 1
    9277     8872     8905 1
    9278     8906     8907 1
    9279     8906     8922 1
    9280     8906     8923 1
    9281     8907     8908 1
    9282     8907     8924 1
    9283     8907     8925 1
    9284     8908     8909 1
    9285     8908     8926 1
    9286     8908     8927 1
    9287     8909     8910 1
    9288     8909     8928 1
    9289     8909     8929 1
    9290     8910     8911 1
    9291     8910     8930 1
    9292     8910     8931 1
    9293     8911     8912 1
    9294     8911     8932 1
    9295     8911     8933 1
    9296     8912     8913 1
    9297     8912     8934 1
    9298     8912     8935 1
    9299     8913     8914 1
    9300     8913     8936 1
    9301     8913     8937 1
    9302     8914     8915 1
    9303     8914     8938 1
    9304     8914     8939 1
    9305     8915     8916 1
    9306     8915     8940 1
    9307     8915     8941 1
    9308     8916     8917 1
    9309     8916     8942 1
    9310     8916     8943 1
    9311     8917     8918 1
    9312     8917     8944 1
    9313     8917     8945 1
    9314     8918     8919 1
    9315     8918     8946 1
    9316     8918     8947 1
    9317     8919     8920 1
    9318     8919     8948 1
    9319     8919     8949 1
    9320     8920     8921 1
    9321     8920     8950 1
    9322     8920     8951 1
    9323     8921     8952 1
    9324     8921     8953 1
    9325     8921     8954 1
    9326     8955     8956 1
    9327     8955     8962 1
    9328     8955     8978 1
    9329     8955     9027 1
    9330     8956     8957 1
    9331     8956     8960 1
    9332     8957     8958 1
    9333     8957     8961 1
    9334     8958     8959 1
    9335     8959     8960 1
    9336     8960     8966 1
    9337     8961     8962 1
    9338     8961     8965 1
    9339     8962     8963 1
    9340     8963     8964 1
    9341     8963     8967 1
    9342     8964     8965 1
    9343     8964     8976 1
    9344     8968     8969 1
    9345     8968     8976 1
    9346     8969     8970 1
    9347     8969     8977 1
    9348     8970     8971 1
    9349     8970     9080 1
    9350     8971     8972 1
    9351     8971     8975 1
    9352     8972     8973 1
    9353     8973     8974 1
    9354     8974     8975 1
    9355     8975     8976 1
    9356     8978     8979 1
    9357     8978     8994 1
    9358     8978     8995 1
    9359     8979     8980 1
    9360     8979     8996 1
    9361     8979     8997 1
    9362     8980     8981 1
    9363     8980     8998 1
    9364     8980     8999 1
    9365     8981     8982 1
    9366     8981     9000 1
    9367     8981     9001 1
    9368     8982     8983 1
    9369     8982     9002 1
    9370     8982     9003 1
    9371     8983     8984 1
    9372     8983     9004 1
    9373     8983     9005 1
    9374     8984     8985 1
    9375     8984     9006 1
    9376     8984     9007 1
    9377     8985     8986 1
    9378     8985     9008 1
    9379     8985     9009 1
    9380     8986     8987 1
    9381     8986     9010 1
    9382     8986     9011 1
    9383     8987     8988 1
    9384     8987     9012 1
    9385     8987     9013 1
    9386     8988     8989 1
    9387     8988     9014 1
    9388     8988     9015 1
    9389     8989     8990 1
    9390     8989     9016 1
    9391     8989     9017 1
    9392     8990     8991 1
    9393     8990     9018 1
    9394     8990     9019 1
    9395     8991     8992 1
    9396     8991     9020 1
    9397     8991     9021 1
    9398     8992     8993 1
    9399     8992     9022 1
    9400     8992     9023 1
    9401     8993     9024 1
    9402     8993     9025 1
    9403     8993     9026 1
    9404     9027     9028 1
    9405     9027     9043 1
    9406     9027     9044 1
    9407     9028     9029 1
    9408     9028     9045 1
    9409     9028     9046 1
    9410     9029     9030 1
    9411     9029     9047 1
    9412     9029     9048 1
    9413     9030     9031 1
    9414     9030     9049 1
    9415     9030     9050 1
    9416     9031     9032 1
    9417     9031     9051 1
    9418     9031     9052 1
    9419     9032     9033 1
    9420     9032     9053 1
    9421     9032     9054 1
    9422     9033     9034 1
    9423     9033     9055 1
    9424     9033     9056 1
    9425     9034     9035 1
    9426     9034     9057 1
    9427     9034     9058 1
    9428     9035     9036 1
    9429     9035     9059 1
    9430     9035     9060 1
    9431     9036     9037 1
    9432     9036     9061 1
    9433     9036     9062 1
    9434     9037     9038 1
    9435     9037     9063 1
    9436     9037     9064 1
    9437     9038     9039 1
    9438     9038     9065 1
    9439     9038     9066 1
    9440     9039     9040 1
    9441     9039     9067 1
    9442     9039     9068 1
    9443     9040     9041 1
    9444     9040     9069 1
    9445     9040     9070 1
    9446     9041     9042 1
    9447     9041     9071 1
    9448     9041     9072 1
    9449     9042     9073 1
    9450     9042     9074 1
    9451     9042     9075 1
    9452     9076     9077 1
    9453     9076     9083 1
    9454     9076     9099 1
    9455     9076     9148 1
    9456     9077     9078 1
    9457     9077     9081 1
    9458     9078     9079 1
    9459     9078     9082 1
    9460     9079     9080 1
    9461     9080     9081 1
    9462     9081     9087 1
    9463     9082     9083 1
    9464     9082     9086 1
    9465     9083     9084 1
    9466     9084     9085 1
    9467     9084     9088 1
    9468     9085     9086 1
    9469     9085     9097 1
    9470     9089     9090 1
    9471     9089     9097 1
    9472     9090     9091 1
    9473     9090     9098 1
    9474     9091     9092 1
    9475     9091     9201 1
    9476     9092     9093 1
    9477     9092     9096 1
    9478     9093     9094 1
    9479     9094     9095 1
    9480     9095     9096 1
    9481     9096     9097 1
    9482     9099     9100 1
    9483     9099     9115 1
    9484     9099     9116 1
    9485     9100     9101 1
    9486     9100     9117 1
    9487     9100     9118 1
    9488     9101     9102 1
    9489     9101     9119 1
    9490     9101     9120 1
    9491     9102     9103 1
    9492     9102     9121 1
    9493     9102     9122 1
    9494     9103     9104 1
    9495     9103     9123 1
    9496     9103     9124 1
    9497     9104     9105 1
    9498     9104     9125 1
    9499     9104     9126 1
    9500     9105     9106 1
    9501     9105     9127 1
    9502     9105     9128 1
    9503     9106     9107 1
    9504     9106     9129 1
    9505     9106     9130 1
    9506     9107     9108 1
    9507     9107     9131 1
    9508     9107     9132 1
    9509     9108     9109 1
    9510     9108     9133 1
    9511     9108     9134 1
    9512     9109     9110 1
    9513     9109     9135 1
    9514     9109     9136 1
    9515     9110     9111 1
    9516     9110     9137 1
    9517     9110     9138 1
    9518     9111     9112 1
    9519     9111     9139 1
    9520     9111     9140 1
    9521     9112     9113 1
    9522     9112     9141 1
    9523     9112     9142 1
    9524     9113     9114 1
    9525     9113     9143 1
    9526     9113     9144 1
    9527     9114     9145 1
    9528     9114     9146 1
    9529     9114     9147 1
    9530     9148     9149 1
    9531     9148     9164 1
    9532     9148     9165 1
    9533     9149     9150 1
    9534     9149     9166 1
    9535     9149     9167 1
    9536     9150     9151 1
    9537     9150     9168 1
    9538     9150     9169 1
    9539     9151     9152 1
    9540     9151     9170 1
    9541     9151     9171 1
    9542     9152     9153 1
    9543     9152     9172 1
    9544     9152     9173 1
    9545     9153     9154 1
    9546     9153     9174 1
    9547     9153     9175 1
    9548     9154     9155 1
    9549     9154     9176 1
    9550     9154     9177 1
    9551     9155     9156 1
    9552     9155     9178 1
    9553     9155     9179 1
    9554     9156     9157 1
    9555     9156     9180 1
    9556     9156     9181 1
    9557     9157     9158 1
    9558     9157     9182 1
    9559     9157     9183 1
    9560     9158     9159 1
    9561     9158     9184 1
    9562     9158     9185 1
    9563     9159     9160 1
    9564     9159     9186 1
    9565     9159     9187 1
    9566     9160     9161 1
    9567     9160     9188 1
    9568     9160     9189 1
    9569     9161     9162 1
    9570     9161     9190 1
    9571     9161     9191 1
    9572     9162     9163 1
    9573     9162     9192 1
    9574     9162     9193 1
    9575     9163     9194 1
    9576     9163     9195 1
    9577     9163     9196 1
    9578     9197     9198 1
    9579     9197     9204 1
    9580     9197     9220 1
    9581     9197     9269 1
    9582     9198     9199 1
    9583     9198     9202 1
    9584     9199     9200 1
    9585     9199     9203 1
    9586     9200     9201 1
    9587     9201     9202 1
    9588     9202     9208 1
    9589     9203     9204 1
    9590     9203     9207 1
    9591     9204     9205 1
    9592     9205     9206 1
    9593     9205     9209 1
    9594     9206     9207 1
    9595     9206     9218 1
    9596     9210     9211 1
    9597     9210     9218 1
    9598     9211     9212 1
    9599     9211     9219 1
    9600     9212     9213 1
    9601     9212     9322 1
    9602     9213     9214 1
    9603     9213     9217 1
    9604     9214     9215 1
    9605     9215     9216 1
    9606     9216     9217 1
    9607     9217     9218 1
    9608     9220     9221 1
    9609     9220     9236 1
    9610     9220     9237 1
    9611     9221     9222 1
    9612     9221     9238 1
    9613     9221     9239 1
    9614     9222     9223 1
    9615     9222     9240 1
    9616     9222     9241 1
    9617     9223     9224 1
    9618     9223     9242 1
    9619     9223     9243 1
    9620     9224     9225 1
    9621     9224     9244 1
    9622     9224     9245 1
    9623     9225     9226 1
    9624     9225     9246 1
    9625     9225     9247 1
    9626     9226     9227 1
    9627     9226     9248 1
    9628     9226     9249 1
    9629     9227     9228 1
    9630     9227     9250 1
    9631     9227     9251 1
    9632     9228     9229 1
    9633     9228     9252 1
    9634     9228     9253 1
    9635     9229     9230 1
    9636     9229     9254 1
    9637     9229     9255 1
    9638     9230     9231 1
    9639     9230     9256 1
    9640     9230     9257 1
    9641     9231     9232 1
    9642     9231     9258 1
    9643     9231     9259 1
    9644     9232     9233 1
    9645     9232     9260 1
    9646     9232     9261 1
    9647     9233     9234 1
    9648     9233     9262 1
    9649     9233     9263 1
    9650     9234     9235 1
    9651     9234     9264 1
    9652     9234     9265 1
    9653     9235     9266 1
    9654     9235     9267 1
    9655     9235     9268 1
    9656     9269     9270 1
    9657     9269     9285 1
    9658     9269     9286 1
    9659     9270     9271 1
    9660     9270     9287 1
    9661     9270     9288 1
    9662     9271     9272 1
    9663     9271     9289 1
    9664     9271     9290 1
    9665     9272     9273 1
    9666     9272     9291 1
    9667     9272     9292 1
    9668     9273     9274 1
    9669     9273     9293 1
    9670     9273     9294 1
    9671     9274     9275 1
    9672     9274     9295 1
    9673     9274     9296 1
    9674     9275     9276 1
    9675     9275     9297 1
    9676     9275     9298 1
    9677     9276     9277 1
    9678     9276     9299 1
    9679     9276     9300 1
    9680     9277     9278 1
    9681     9277     9301 1
    9682     9277     9302 1
    9683     9278     9279 1
    9684     9278     9303 1
    9685     9278     9304 1
    9686     9279     9280 1
    9687     9279     9305 1
    9688     9279     9306 1
    9689     9280     9281 1
    9690     9280     9307 1
    9691     9280     9308 1
    9692     9281     9282 1
    9693     9281     9309 1
    9694     9281     9310 1
    9695     9282     9283 1
    9696     9282     9311 1
    9697     9282     9312 1
    9698     9283     9284 1
    9699     9283     9313 1
    9700     9283     9314 1
    9701     9284     9315 1
    9702     9284     9316 1
    9703     9284     9317 1
    9704     9318     9319 1
    9705     9318     9325 1
    9706     9318     9341 1
    9707     9318     9390 1
    9708     9319     9320 1
    9709     9319     9323 1
    9710     9320     9321 1
    9711     9320     9324 1
    9712     9321     9322 1
    9713     9322     9323 1
    9714     9323     9329 1
    9715     9324     9325 1
    9716     9324     9328 1
    9717     9325     9326 1
    9718     9326     9327 1
    9719     9326     9330 1
    9720     9327     9328 1
    9721     9327     9339 1
    9722     9331     9332 1
    9723     9331     9339 1
    9724     9332     9333 1
    9725     9332     9340 1
    9726     9333     9334 1
    9727     9333     9443 1
    9728     9334     9335 1
    9729     9334     9338 1
    9730     9335     9336 1
    9731     9336     9337 1
    9732     9337     9338 1
    9733     9338     9339 1
    9734     9341     9342 1
    9735     9341     9357 1
    9736     9341     9358 1
    9737     9342     9343 1
    9738     9342     9359 1
    9739     9342     9360 1
    9740     9343     9344 1
    9741     9343     9361 1
    9742     9343     9362 1
    9743     9344     9345 1
    9744     9344     9363 1
    9745     9344     9364 1
    9746     9345     9346 1
    9747     9345     9365 1
    9748     9345     9366 1
    9749     9346     9347 1
    9750     9346     9367 1
    9751     9346     9368 1
    9752     9347     9348 1
    9753     9347     9369 1
    9754     9347     9370 1
    9755     9348     9349 1
    9756     9348     9371 1
    9757     9348     9372 1
    9758     9349     9350 1
    9759     9349     9373 1
    9760     9349     9374 1
    9761     9350     9351 1
    9762     9350     9375 1
    9763     9350     9376 1
    9764     9351     9352 1
    9765     9351     9377 1
    9766     9351     9378 1
    9767     9352     9353 1
    9768     9352     9379 1
    9769     9352     9380 1
    9770     9353     9354 1
    9771     9353     9381 1
    9772     9353     9382 1
    9773     9354     9355 1
    9774     9354     9383 1
    9775     9354     9384 1
    9776     9355     9356 1
    9777     9355     9385 1
    9778     9355     9386 1
    9779     9356     9387 1
    9780     9356     9388 1
    9781     9356     9389 1
    9782     9390     9391 1
    9783     9390     9406 1
    9784     9390     9407 1
    9785     9391     9392 1
    9786     9391     9408 1
    9787     9391     9409 1
    9788     9392     9393 1
    9789     9392     9410 1
    9790     9392     9411 1
    9791     9393     9394 1
    9792     9393     9412 1
    9793     9393     9413 1
    9794     9394     9395 1
    9795     9394     9414 1
    9796     9394     9415 1
    9797     9395     9396 1
    9798     9395     9416 1
    9799     9395     9417 1
    9800     9396     9397 1
    9801     9396     9418 1
    9802     9396     9419 1
    9803     9397     9398 1
    9804     9397     9420 1
    9805     9397     9421 1
    9806     9398     9399 1
    9807     9398     9422 1
    9808     9398     9423 1
    9809     9399     9400 1
    9810     9399     9424 1
    9811     9399     9425 1
    9812     9400     9401 1
    9813     9400     9426 1
    9814     9400     9427 1
    9815     9401     9402 1
    9816     9401     9428 1
    9817     9401     9429 1
    9818     9402     9403 1
    9819     9402     9430 1
    9820     9402     9431 1
    9821     9403     9404 1
    9822     9403     9432 1
    9823     9403     9433 1
    9824     9404     9405 1
    9825     9404     9434 1
    9826     9404     9435 1
    9827     9405     9436 1
    9828     9405     9437 1
    9829     9405     9438 1
    9830     9439     9440 1
    9831     9439     9446 1
    9832     9439     9462 1
    9833     9439     9511 1
    9834     9440     9441 1
    9835     9440     9444 1
    9836     9441     9442 1
    9837     9441     9445 1
    9838     9442     9443 1
    9839     9443     9444 1
    9840     9444     9450 1
    9841     9445     9446 1
    9842     9445     9449 1
    9843     9446     9447 1
    9844     9447     9448 1
    9845     9447     9451 1
    9846     9448     9449 1
    9847     9448     9460 1
    9848     9452     9453 1
    9849     9452     9460 1
    9850     9453     9454 1
    9851     9453     9461 1
    9852     9454     9455 1
    9853     9454     9564 1
    9854     9455     9456 1
    9855     9455     9459 1
    9856     9456     9457 1
    9857     9457     9458 1
    9858     9458     9459 1
    9859     9459     9460 1
    9860     9462     9463 1
    9861     9462     9478 1
    9862     9462     9479 1
    9863     9463     9464 1
    9864     9463     9480 1
    9865     9463     9481 1
    9866     9464     9465 1
    9867     9464     9482 1
    9868     9464     9483 1
    9869     9465     9466 1
    9870     9465     9484 1
    9871     9465     9485 1
    9872     9466     9467 1
    9873     9466     9486 1
    9874     9466     9487 1
    9875     9467     9468 1
    9876     9467     9488 1
    9877     9467     9489 1
    9878     9468     9469 1
    9879     9468     9490 1
    9880     9468     9491 1
    9881     9469     9470 1
    9882     9469     9492 1
    9883     9469     9493 1
    9884     9470     9471 1
    9885     9470     9494 1
    9886     9470     9495 1
    9887     9471     9472 1
    9888     9471     9496 1
    9889     9471     9497 1
    9890     9472     9473 1
    9891     9472     9498 1
    9892     9472     9499 1
    9893     9473     9474 1
    9894     9473     9500 1
    9895     9473     9501 1
    9896     9474     9475 1
    9897     9474     9502 1
    9898     9474     9503 1
    9899     9475     9476 1
    9900     9475     9504 1
    9901     9475     9505 1
    9902     9476     9477 1
    9903     9476     9506 1
    9904     9476     9507 1
    9905     9477     9508 1
    9906     9477     9509 1
    9907     9477     9510 1
    9908     9511     9512 1
    9909     9511     9527 1
    9910     9511     9528 1
    9911     9512     9513 1
    9912     9512     9529 1
    9913     9512     9530 1
    9914     9513     9514 1
    9915     9513     9531 1
    9916     9513     9532 1
    9917     9514     9515 1
    9918     9514     9533 1
    9919     9514     9534 1
    9920     9515     9516 1
    9921     9515     9535 1
    9922     9515     9536 1
    9923     9516     9517 1
    9924     9516     9537 1
    9925     9516     9538 1
    9926     9517     9518 1
    9927     9517     9539 1
    9928     9517     9540 1
    9929     9518     9519 1
    9930     9518     9541 1
    9931     9518     9542 1
    9932     9519     9520 1
    9933     9519     9543 1
    9934     9519     9544 1
    9935     9520     9521 1
    9936     9520     9545 1
    9937     9520     9546 1
    9938     9521     9522 1
    9939     9521     9547 1
    9940     9521     9548 1
    9941     9522     9523 1
    9942     9522     9549 1
    9943     9522     9550 1
    9944     9523     9524 1
    9945     9523     9551 1
    9946     9523     9552 1
    9947     9524     9525 1
    9948     9524     9553 1
    9949     9524     9554 1
    9950     9525     9526 1
    9951     9525     9555 1
    9952     9525     9556 1
    9953     9526     9557 1
    9954     9526     9558 1
    9955     9526     9559 1
    9956     9560     9561 1
    9957     9560     9567 1
    9958     9560     9583 1
    9959     9560     9632 1
    9960     9561     9562 1
    9961     9561     9565 1
    9962     9562     9563 1
    9963     9562     9566 1
    9964     9563     9564 1
    9965     9564     9565 1
    9966     9565     9571 1
    9967     9566     9567 1
    9968     9566     9570 1
    9969     9567     9568 1
    9970     9568     9569 1
    9971     9568     9572 1
    9972     9569     9570 1
    9973     9569     9581 1
    9974     9573     9574 1
    9975     9573     9581 1
    9976     9574     9575 1
    9977     9574     9582 1
    9978     9575     9576 1
    9979     9575     9685 1
    9980     9576     9577 1
    9981     9576     9580 1
    9982     9577     9578 1
    9983     9578     9579 1
    9984     9579     9580 1
    9985     9580     9581 1
    9986     9583     9584 1
    9987     9583     9599 1
    9988     9583     9600 1
    9989     9584     9585 1
    9990     9584     9601 1
    9991     9584     9602 1
    9992     9585     9586 1
    9993     9585     9603 1
    9994     9585     9604 1
    9995     9586     9587 1
    9996     9586     9605 1
    9997     9586     9606 1
    9998     9587     9588 1
    9999     9587     9607 1
   10000     9587     9608 1
   10001     9588     9589 1
   10002     9588     9609 1
   10003     9588     9610 1
   10004     9589     9590 1
   10005     9589     9611 1
   10006     9589     9612 1
   10007     9590     9591 1
   10008     9590     9613 1
   10009     9590     9614 1
   10010     9591     9592 1
   10011     9591     9615 1
   10012     9591     9616 1
   10013     9592     9593 1
   10014     9592     9617 1
   10015     9592     9618 1
   10016     9593     9594 1
   10017     9593     9619 1
   10018     9593     9620 1
   10019     9594     9595 1
   10020     9594     9621 1
   10021     9594     9622 1
   10022     9595     9596 1
   10023     9595     9623 1
   10024     9595     9624 1
   10025     9596     9597 1
   10026     9596     9625 1
   10027     9596     9626 1
   10028     9597     9598 1
   10029     9597     9627 1
   10030     9597     9628 1
   10031     9598     9629 1
   10032     9598     9630 1
   10033     9598     9631 1
   10034     9632     9633 1
   10035     9632     9648 1
   10036     9632     9649 1
   10037     9633     9634 1
   10038     9633     9650 1
   10039     9633     9651 1
   10040     9634     9635 1
   10041     9634     9652 1
   10042     9634     9653 1
   10043     9635     9636 1
   10044     9635     9654 1
   10045     9635     9655 1
   10046     9636     9637 1
   10047     9636     9656 1
   10048     9636     9657 1
   10049     9637     9638 1
   10050     9637     9658 1
   10051     9637     9659 1
   10052     9638     9639 1
   10053     9638     9660 1
   10054     9638     9661 1
   10055     9639     9640 1
   10056     9639     9662 1
   10057     9639     9663 1
   10058     9640     9641 1
   10059     9640     9664 1
   10060     9640     9665 1
   10061     9641     9642 1
   10062     9641     9666 1
   10063     9641     9667 1
   10064     9642     9643 1
   10065     9642     9668 1
   10066     9642     9669 1
   10067     9643     9644 1
   10068     9643     9670 1
   10069     9643     9671 1
   10070     9644     9645 1
   10071     9644     9672 1
   10072     9644     9673 1
   10073     9645     9646 1
   10074     9645     9674 1
   10075     9645     9675 1
   10076     9646     9647 1
   10077     9646     9676 1
   10078     9646     9677 1
   10079     9647     9678 1
   10080     9647     9679 1
   10081     9647     9680 1
   10082     9681     9682 1
   10083     9681     9688 1
   10084     9681     9704 1
   10085     9681     9753 1
   10086     9682     9683 1
   10087     9682     9686 1
   10088     9683     9684 1
   10089     9683     9687 1
   10090     9684     9685 1
   10091     9685     9686 1
   10092     9686     9692 1
   10093     9687     9688 1
   10094     9687     9691 1
   10095     9688     9689 1
   10096     9689     9690 1
   10097     9689     9693 1
   10098     9690     9691 1
   10099     9690     9702 1
   10100     9694     9695 1
   10101     9694     9702 1
   10102     9695     9696 1
   10103     9695     9703 1
   10104     9696     9697 1
   10105     9696     9806 1
   10106     9697     9698 1
   10107     9697     9701 1
   10108     9698     9699 1
   10109     9699     9700 1
   10110     9700     9701 1
   10111     9701     9702 1
   10112     9704     9705 1
   10113     9704     9720 1
   10114     9704     9721 1
   10115     9705     9706 1
   10116     9705     9722 1
   10117     9705     9723 1
   10118     9706     9707 1
   10119     9706     9724 1
   10120     9706     9725 1
   10121     9707     9708 1
   10122     9707     9726 1
   10123     9707     9727 1
   10124     9708     9709 1
   10125     9708     9728 1
   10126     9708     9729 1
   10127     9709     9710 1
   10128     9709     9730 1
   10129     9709     9731 1
   10130     9710     9711 1
   10131     9710     9732 1
   10132     9710     9733 1
   10133     9711     9712 1
   10134     9711     9734 1
   10135     9711     9735 1
   10136     9712     9713 1
   10137     9712     9736 1
   10138     9712     9737 1
   10139     9713     9714 1
   10140     9713     9738 1
   10141     9713     9739 1
   10142     9714     9715 1
   10143     9714     9740 1
   10144     9714     9741 1
   10145     9715     9716 1
   10146     9715     9742 1
   10147     9715     9743 1
   10148     9716     9717 1
   10149     9716     9744 1
   10150     9716     9745 1
   10151     9717     9718 1
   10152     9717     9746 1
   10153     9717     9747 1
   10154     9718     9719 1
   10155     9718     9748 1
   10156     9718     9749 1
   10157     9719     9750 1
   10158     9719     9751 1
   10159     9719     9752 1
   10160     9753     9754 1
   10161     9753     9769 1
   10162     9753     9770 1
   10163     9754     9755 1
   10164     9754     9771 1
   10165     9754     9772 1
   10166     9755     9756 1
   10167     9755     9773 1
   10168     9755     9774 1
   10169     9756     9757 1
   10170     9756     9775 1
   10171     9756     9776 1
   10172     9757     9758 1
   10173     9757     9777 1
   10174     9757     9778 1
   10175     9758     9759 1
   10176     9758     9779 1
   10177     9758     9780 1
   10178     9759     9760 1
   10179     9759     9781 1
   10180     9759     9782 1
   10181     9760     9761 1
   10182     9760     9783 1
   10183     9760     9784 1
   10184     9761     9762 1
   10185     9761     9785 1
   10186     9761     9786 1
   10187     9762     9763 1
   10188     9762     9787 1
   10189     9762     9788 1
   10190     9763     9764 1
   10191     9763     9789 1
   10192     9763     9790 1
   10193     9764     9765 1
   10194     9764     9791 1
   10195     9764     9792 1
   10196     9765     9766 1
   10197     9765     9793 1
   10198     9765     9794 1
   10199     9766     9767 1
   10200     9766     9795 1
   10201     9766     9796 1
   10202     9767     9768 1
   10203     9767     9797 1
   10204     9767     9798 1
   10205     9768     9799 1
   10206     9768     9800 1
   10207     9768     9801 1
   10208     9802     9803 1
   10209     9802     9809 1
   10210     9802     9825 1
   10211     9802     9874 1
   10212     9803     9804 1
   10213     9803     9807 1
   10214     9804     9805 1
   10215     9804     9808 1
   10216     9805     9806 1
   10217     9806     9807 1
   10218     9807     9813 1
   10219     9808     9809 1
   10220     9808     9812 1
   10221     9809     9810 1
   10222     9810     9811 1
   10223     9810     9814 1
   10224     9811     9812 1
   10225     9811     9823 1
   10226     9815     9816 1
   10227     9815     9823 1
   10228     9816     9817 1
   10229     9816     9824 1
   10230     9817     9818 1
   10231     9817     9927 1
   10232     9818     9819 1
   10233     9818     9822 1
   10234     9819     9820 1
   10235     9820     9821 1
   10236     9821     9822 1
   10237     9822     9823 1
   10238     9825     9826 1
   10239     9825     9841 1
   10240     9825     9842 1
   10241     9826     9827 1
   10242     9826     9843 1
   10243     9826     9844 1
   10244     9827     9828 1
   10245     9827     9845 1
   10246     9827     9846 1
   10247     9828     9829 1
   10248     9828     9847 1
   10249     9828     9848 1
   10250     9829     9830 1
   10251     9829     9849 1
   10252     9829     9850 1
   10253     9830     9831 1
   10254     9830     9851 1
   10255     9830     9852 1
   10256     9831     9832 1
   10257     9831     9853 1
   10258     9831     9854 1
   10259     9832     9833 1
   10260     9832     9855 1
   10261     9832     9856 1
   10262     9833     9834 1
   10263     9833     9857 1
   10264     9833     9858 1
   10265     9834     9835 1
   10266     9834     9859 1
   10267     9834     9860 1
   10268     9835     9836 1
   10269     9835     9861 1
   10270     9835     9862 1
   10271     9836     9837 1
   10272     9836     9863 1
   10273     9836     9864 1
   10274     9837     9838 1
   10275     9837     9865 1
   10276     9837     9866 1
   10277     9838     9839 1
   10278     9838     9867 1
   10279     9838     9868 1
   10280     9839     9840 1
   10281     9839     9869 1
   10282     9839     9870 1
   10283     9840     9871 1
   10284     9840     9872 1
   10285     9840     9873 1
   10286     9874     9875 1
   10287     9874     9890 1
   10288     9874     9891 1
   10289     9875     9876 1
   10290     9875     9892 1
   10291     9875     9893 1
   10292     9876     9877 1
   10293     9876     9894 1
   10294     9876     9895 1
   10295     9877     9878 1
   10296     9877     9896 1
   10297     9877     9897 1
   10298     9878     9879 1
   10299     9878     9898 1
   10300     9878     9899 1
   10301     9879     9880 1
   10302     9879     9900 1
   10303     9879     9901 1
   10304     9880     9881 1
   10305     9880     9902 1
   10306     9880     9903 1
   10307     9881     9882 1
   10308     9881     9904 1
   10309     9881     9905 1
   10310     9882     9883 1
   10311     9882     9906 1
   10312     9882     9907 1
   10313     9883     9884 1
   10314     9883     9908 1
   10315     9883     9909 1
   10316     9884     9885 1
   10317     9884     9910 1
   10318     9884     9911 1
   10319     9885     9886 1
   10320     9885     9912 1
   10321     9885     9913 1
   10322     9886     9887 1
   10323     9886     9914 1
   10324     9886     9915 1
   10325     9887     9888 1
   10326     9887     9916 1
   10327     9887     9917 1
   10328     9888     9889 1
   10329     9888     9918 1
   10330     9888     9919 1
   10331     9889     9920 1
   10332     9889     9921 1
   10333     9889     9922 1
   10334     9923     9924 1
   10335     9923     9930 1
   10336     9923     9946 1
   10337     9923     9995 1
   10338     9924     9925 1
   10339     9924     9928 1
   10340     9925     9926 1
   10341     9925     9929 1
   10342     9926     9927 1
   10343     9927     9928 1
   10344     9928     9934 1
   10345     9929     9930 1
   10346     9929     9933 1
   10347     9930     9931 1
   10348     9931     9932 1
   10349     9931     9935 1
   10350     9932     9933 1
   10351     9932     9944 1
   10352     9936     9937 1
   10353     9936     9944 1
   10354     9937     9938 1
   10355     9937     9945 1
   10356     9938     9939 1
   10357     9938    10048 1
   10358     9939     9940 1
   10359     9939     9943 1
   10360     9940     9941 1
   10361     9941     9942 1
   10362     9942     9943 1
   10363     9943     9944 1
   10364     9946     9947 1
   10365     9946     9962 1
   10366     9946     9963 1
   10367     9947     9948 1
   10368     9947     9964 1
   10369     9947     9965 1
   10370     9948     9949 1
   10371     9948     9966 1
   10372     9948     9967 1
   10373     9949     9950 1
   10374     9949     9968 1
   10375     9949     9969 1
   10376     9950     9951 1
   10377     9950     9970 1
   10378     9950     9971 1
   10379     9951     9952 1
   10380     9951     9972 1
   10381     9951     9973 1
   10382     9952     9953 1
   10383     9952     9974 1
   10384     9952     9975 1
   10385     9953     9954 1
   10386     9953     9976 1
   10387     9953     9977 1
   10388     9954     9955 1
   10389     9954     9978 1
   10390     9954     9979 1
   10391     9955     9956 1
   10392     9955     9980 1
   10393     9955     9981 1
   10394     9956     9957 1
   10395     9956     9982 1
   10396     9956     9983 1
   10397     9957     9958 1
   10398     9957     9984 1
   10399     9957     9985 1
   10400     9958     9959 1
   10401     9958     9986 1
   10402     9958     9987 1
   10403     9959     9960 1
   10404     9959     9988 1
   10405     9959     9989 1
   10406     9960     9961 1
   10407     9960     9990 1
   10408     9960     9991 1
   10409     9961     9992 1
   10410     9961     9993 1
   10411     9961     9994 1
   10412     9995     9996 1
   10413     9995    10011 1
   10414     9995    10012 1
   10415     9996     9997 1
   10416     9996    10013 1
   10417     9996    10014 1
   10418     9997     9998 1
   10419     9997    10015 1
   10420     9997    10016 1
   10421     9998     9999 1
   10422     9998    10017 1
   10423     9998    10018 1
   10424     9999    10000 1
   10425     9999    10019 1
   10426     9999    10020 1
   10427    10000    10001 1
   10428    10000    10021 1
   10429    10000    10022 1
   10430    10001    10002 1
   10431    10001    10023 1
   10432    10001    10024 1
   10433    10002    10003 1
   10434    10002    10025 1
   10435    10002    10026 1
   10436    10003    10004 1
   10437    10003    10027 1
   10438    10003    10028 1
   10439    10004    10005 1
   10440    10004    10029 1
   10441    10004    10030 1
   10442    10005    10006 1
   10443    10005    10031 1
   10444    10005    10032 1
   10445    10006    10007 1
   10446    10006    10033 1
   10447    10006    10034 1
   10448    10007    10008 1
   10449    10007    10035 1
   10450    10007    10036 1
   10451    10008    10009 1
   10452    10008    10037 1
   10453    10008    10038 1
   10454    10009    10010 1
   10455    10009    10039 1
   10456    10009    10040 1
   10457    10010    10041 1
   10458    10010    10042 1
   10459    10010    10043 1
   10460    10044    10045 1
   10461    10044    10051 1
   10462    10044    10067 1
   10463    10044    10116 1
   10464    10045    10046 1
   10465    10045    10049 1
   10466    10046    10047 1
   10467    10046    10050 1
   10468    10047    10048 1
   10469    10048    10049 1
   10470    10049    10055 1
   10471    10050    10051 1
   10472    10050    10054 1
   10473    10051    10052 1
   10474    10052    10053 1
   10475    10052    10056 1
   10476    10053    10054 1
   10477    10053    10065 1
   10478    10057    10058 1
   10479    10057    10065 1
   10480    10058    10059 1
   10481    10058    10066 1
   10482    10059    10060 1
   10483    10059    10169 1
   10484    10060    10061 1
   10485    10060    10064 1
   10486    10061    10062 1
   10487    10062    10063 1
   10488    10063    10064 1
   10489    10064    10065 1
   10490    10067    10068 1
   10491    10067    10083 1
   10492    10067    10084 1
   10493    10068    10069 1
   10494    10068    10085 1
   10495    10068    10086 1
   10496    10069    10070 1
   10497    10069    10087 1
   10498    10069    10088 1
   10499    10070    10071 1
   10500    10070    10089 1
   10501    10070    10090 1
   10502    10071    10072 1
   10503    10071    10091 1
   10504    10071    10092 1
   10505    10072    10073 1
   10506    10072    10093 1
   10507    10072    10094 1
   10508    10073    10074 1
   10509    10073    10095 1
   10510    10073    10096 1
   10511    10074    10075 1
   10512    10074    10097 1
   10513    10074    10098 1
   10514    10075    10076 1
   10515    10075    10099 1
   10516    10075    10100 1
   10517    10076    10077 1
   10518    10076    10101 1
   10519    10076    10102 1
   10520    10077    10078 1
   10521    10077    10103 1
   10522    10077    10104 1
   10523    10078    10079 1
   10524    10078    10105 1
   10525    10078    10106 1
   10526    10079    10080 1
   10527    10079    10107 1
   10528    10079    10108 1
   10529    10080    10081 1
   10530    10080    10109 1
   10531    10080    10110 1
   10532    10081    10082 1
   10533    10081    10111 1
   10534    10081    10112 1
   10535    10082    10113 1
   10536    10082    10114 1
   10537    10082    10115 1
   10538    10116    10117 1
   10539    10116    10132 1
   10540    10116    10133 1
   10541    10117    10118 1
   10542    10117    10134 1
   10543    10117    10135 1
   10544    10118    10119 1
   10545    10118    10136 1
   10546    10118    10137 1
   10547    10119    10120 1
   10548    10119    10138 1
   10549    10119    10139 1
   10550    10120    10121 1
   10551    10120    10140 1
   10552    10120    10141 1
   10553    10121    10122 1
   10554    10121    10142 1
   10555    10121    10143 1
   10556    10122    10123 1
   10557    10122    10144 1
   10558    10122    10145 1
   10559    10123    10124 1
   10560    10123    10146 1
   10561    10123    10147 1
   10562    10124    10125 1
   10563    10124    10148 1
   10564    10124    10149 1
   10565    10125    10126 1
   10566    10125    10150 1
   10567    10125    10151 1
   10568    10126    10127 1
   10569    10126    10152 1
   10570    10126    10153 1
   10571    10127    10128 1
   10572    10127    10154 1
   10573    10127    10155 1
   10574    10128    10129 1
   10575    10128    10156 1
   10576    10128    10157 1
   10577    10129    10130 1
   10578    10129    10158 1
   10579    10129    10159 1
   10580    10130    10131 1
   10581    10130    10160 1
   10582    10130    10161 1
   10583    10131    10162 1
   10584    10131    10163 1
   10585    10131    10164 1
   10586    10165    10166 1
   10587    10165    10172 1
   10588    10165    10188 1
   10589    10165    10237 1
   10590    10166    10167 1
   10591    10166    10170 1
   10592    10167    10168 1
   10593    10167    10171 1
   10594    10168    10169 1
   10595    10169    10170 1
   10596    10170    10176 1
   10597    10171    10172 1
   10598    10171    10175 1
   10599    10172    10173 1
   10600    10173    10174 1
   10601    10173    10177 1
   10602    10174    10175 1
   10603    10174    10186 1
   10604    10178    10179 1
   10605    10178    10186 1
   10606    10179    10180 1
   10607    10179    10187 1
   10608    10180    10181 1
   10609    10180    10290 1
   10610    10181    10182 1
   10611    10181    10185 1
   10612    10182    10183 1
   10613    10183    10184 1
   10614    10184    10185 1
   10615    10185    10186 1
   10616    10188    10189 1
   10617    10188    10204 1
   10618    10188    10205 1
   10619    10189    10190 1
   10620    10189    10206 1
   10621    10189    10207 1
   10622    10190    10191 1
   10623    10190    10208 1
   10624    10190    10209 1
   10625    10191    10192 1
   10626    10191    10210 1
   10627    10191    10211 1
   10628    10192    10193 1
   10629    10192    10212 1
   10630    10192    10213 1
   10631    10193    10194 1
   10632    10193    10214 1
   10633    10193    10215 1
   10634    10194    10195 1
   10635    10194    10216 1
   10636    10194    10217 1
   10637    10195    10196 1
   10638    10195    10218 1
   10639    10195    10219 1
   10640    10196    10197 1
   10641    10196    10220 1
   10642    10196    10221 1
   10643    10197    10198 1
   10644    10197    10222 1
   10645    10197    10223 1
   10646    10198    10199 1
   10647    10198    10224 1
   10648    10198    10225 1
   10649    10199    10200 1
   10650    10199    10226 1
   10651    10199    10227 1
   10652    10200    10201 1
   10653    10200    10228 1
   10654    10200    10229 1
   10655    10201    10202 1
   10656    10201    10230 1
   10657    10201    10231 1
   10658    10202    10203 1
   10659    10202    10232 1
   10660    10202    10233 1
   10661    10203    10234 1
   10662    10203    10235 1
   10663    10203    10236 1
   10664    10237    10238 1
   10665    10237    10253 1
   10666    10237    10254 1
   10667    10238    10239 1
   10668    10238    10255 1
   10669    10238    10256 1
   10670    10239    10240 1
   10671    10239    10257 1
   10672    10239    10258 1
   10673    10240    10241 1
   10674    10240    10259 1
   10675    10240    10260 1
   10676    10241    10242 1
   10677    10241    10261 1
   10678    10241    10262 1
   10679    10242    10243 1
   10680    10242    10263 1
   10681    10242    10264 1
   10682    10243    10244 1
   10683    10243    10265 1
   10684    10243    10266 1
   10685    10244    10245 1
   10686    10244    10267 1
   10687    10244    10268 1
   10688    10245    10246 1
   10689    10245    10269 1
   10690    10245    10270 1
   10691    10246    10247 1
   10692    10246    10271 1
   10693    10246    10272 1
   10694    10247    10248 1
   10695    10247    10273 1
   10696    10247    10274 1
   10697    10248    10249 1
   10698    10248    10275 1
   10699    10248    10276 1
   10700    10249    10250 1
   10701    10249    10277 1
   10702    10249    10278 1
   10703    10250    10251 1
   10704    10250    10279 1
   10705    10250    10280 1
   10706    10251    10252 1
   10707    10251    10281 1
   10708    10251    10282 1
   10709    10252    10283 1
   10710    10252    10284 1
   10711    10252    10285 1
   10712    10286    10287 1
   10713    10286    10293 1
   10714    10286    10309 1
   10715    10286    10358 1
   10716    10287    10288 1
   10717    10287    10291 1
   10718    10288    10289 1
   10719    10288    10292 1
   10720    10289    10290 1
   10721    10290    10291 1
   10722    10291    10297 1
   10723    10292    10293 1
   10724    10292    10296 1
   10725    10293    10294 1
   10726    10294    10295 1
   10727    10294    10298 1
   10728    10295    10296 1
   10729    10295    10307 1
   10730    10299    10300 1
   10731    10299    10307 1
   10732    10300    10301 1
   10733    10300    10308 1
   10734    10301    10302 1
   10735    10301    10411 1
   10736    10302    10303 1
   10737    10302    10306 1
   10738    10303    10304 1
   10739    10304    10305 1
   10740    10305    10306 1
   10741    10306    10307 1
   10742    10309    10310 1
   10743    10309    10325 1
   10744    10309    10326 1
   10745    10310    10311 1
   10746    10310    10327 1
   10747    10310    10328 1
   10748    10311    10312 1
   10749    10311    10329 1
   10750    10311    10330 1
   10751    10312    10313 1
   10752    10312    10331 1
   10753    10312    10332 1
   10754    10313    10314 1
   10755    10313    10333 1
   10756    10313    10334 1
   10757    10314    10315 1
   10758    10314    10335 1
   10759    10314    10336 1
   10760    10315    10316 1
   10761    10315    10337 1
   10762    10315    10338 1
   10763    10316    10317 1
   10764    10316    10339 1
   10765    10316    10340 1
   10766    10317    10318 1
   10767    10317    10341 1
   10768    10317    10342 1
   10769    10318    10319 1
   10770    10318    10343 1
   10771    10318    10344 1
   10772    10319    10320 1
   10773    10319    10345 1
   10774    10319    10346 1
   10775    10320    10321 1
   10776    10320    10347 1
   10777    10320    10348 1
   10778    10321    10322 1
   10779    10321    10349 1
   10780    10321    10350 1
   10781    10322    10323 1
   10782    10322    10351 1
   10783    10322    10352 1
   10784    10323    10324 1
   10785    10323    10353 1
   10786    10323    10354 1
   10787    10324    10355 1
   10788    10324    10356 1
   10789    10324    10357 1
   10790    10358    10359 1
   10791    10358    10374 1
   10792    10358    10375 1
   10793    10359    10360 1
   10794    10359    10376 1
   10795    10359    10377 1
   10796    10360    10361 1
   10797    10360    10378 1
   10798    10360    10379 1
   10799    10361    10362 1
   10800    10361    10380 1
   10801    10361    10381 1
   10802    10362    10363 1
   10803    10362    10382 1
   10804    10362    10383 1
   10805    10363    10364 1
   10806    10363    10384 1
   10807    10363    10385 1
   10808    10364    10365 1
   10809    10364    10386 1
   10810    10364    10387 1
   10811    10365    10366 1
   10812    10365    10388 1
   10813    10365    10389 1
   10814    10366    10367 1
   10815    10366    10390 1
   10816    10366    10391 1
   10817    10367    10368 1
   10818    10367    10392 1
   10819    10367    10393 1
   10820    10368    10369 1
   10821    10368    10394 1
   10822    10368    10395 1
   10823    10369    10370 1
   10824    10369    10396 1
   10825    10369    10397 1
   10826    10370    10371 1
   10827    10370    10398 1
   10828    10370    10399 1
   10829    10371    10372 1
   10830    10371    10400 1
   10831    10371    10401 1
   10832    10372    10373 1
   10833    10372    10402 1
   10834    10372    10403 1
   10835    10373    10404 1
   10836    10373    10405 1
   10837    10373    10406 1
   10838    10407    10408 1
   10839    10407    10414 1
   10840    10407    10430 1
   10841    10407    10479 1
   10842    10408    10409 1
   10843    10408    10412 1
   10844    10409    10410 1
   10845    10409    10413 1
   10846    10410    10411 1
   10847    10411    10412 1
   10848    10412    10418 1
   10849    10413    10414 1
   10850    10413    10417 1
   10851    10414    10415 1
   10852    10415    10416 1
   10853    10415    10419 1
   10854    10416    10417 1
   10855    10416    10428 1
   10856    10420    10421 1
   10857    10420    10428 1
   10858    10421    10422 1
   10859    10421    10429 1
   10860    10422    10423 1
   10861    10422    10532 1
   10862    10423    10424 1
   10863    10423    10427 1
   10864    10424    10425 1
   10865    10425    10426 1
   10866    10426    10427 1
   10867    10427    10428 1
   10868    10430    10431 1
   10869    10430    10446 1
   10870    10430    10447 1
   10871    10431    10432 1
   10872    10431    10448 1
   10873    10431    10449 1
   10874    10432    10433 1
   10875    10432    10450 1
   10876    10432    10451 1
   10877    10433    10434 1
   10878    10433    10452 1
   10879    10433    10453 1
   10880    10434    10435 1
   10881    10434    10454 1
   10882    10434    10455 1
   10883    10435    10436 1
   10884    10435    10456 1
   10885    10435    10457 1
   10886    10436    10437 1
   10887    10436    10458 1
   10888    10436    10459 1
   10889    10437    10438 1
   10890    10437    10460 1
   10891    10437    10461 1
   10892    10438    10439 1
   10893    10438    10462 1
   10894    10438    10463 1
   10895    10439    10440 1
   10896    10439    10464 1
   10897    10439    10465 1
   10898    10440    10441 1
   10899    10440    10466 1
   10900    10440    10467 1
   10901    10441    10442 1
   10902    10441    10468 1
   10903    10441    10469 1
   10904    10442    10443 1
   10905    10442    10470 1
   10906    10442    10471 1
   10907    10443    10444 1
   10908    10443    10472 1
   10909    10443    10473 1
   10910    10444    10445 1
   10911    10444    10474 1
   10912    10444    10475 1
   10913    10445    10476 1
   10914    10445    10477 1
   10915    10445    10478 1
   10916    10479    10480 1
   10917    10479    10495 1
   10918    10479    10496 1
   10919    10480    10481 1
   10920    10480    10497 1
   10921    10480    10498 1
   10922    10481    10482 1
   10923    10481    10499 1
   10924    10481    10500 1
   10925    10482    10483 1
   10926    10482    10501 1
   10927    10482    10502 1
   10928    10483    10484 1
   10929    10483    10503 1
   10930    10483    10504 1
   10931    10484    10485 1
   10932    10484    10505 1
   10933    10484    10506 1
   10934    10485    10486 1
   10935    10485    10507 1
   10936    10485    10508 1
   10937    10486    10487 1
   10938    10486    10509 1
   10939    10486    10510 1
   10940    10487    10488 1
   10941    10487    10511 1
   10942    10487    10512 1
   10943    10488    10489 1
   10944    10488    10513 1
   10945    10488    10514 1
   10946    10489    10490 1
   10947    10489    10515 1
   10948    10489    10516 1
   10949    10490    10491 1
   10950    10490    10517 1
   10951    10490    10518 1
   10952    10491    10492 1
   10953    10491    10519 1
   10954    10491    10520 1
   10955    10492    10493 1
   10956    10492    10521 1
   10957    10492    10522 1
   10958    10493    10494 1
   10959    10493    10523 1
   10960    10493    10524 1
   10961    10494    10525 1
   10962    10494    10526 1
   10963    10494    10527 1
   10964    10528    10529 1
   10965    10528    10535 1
   10966    10528    10551 1
   10967    10528    10600 1
   10968    10529    10530 1
   10969    10529    10533 1
   10970    10530    10531 1
   10971    10530    10534 1
   10972    10531    10532 1
   10973    10532    10533 1
   10974    10533    10539 1
   10975    10534    10535 1
   10976    10534    10538 1
   10977    10535    10536 1
   10978    10536    10537 1
   10979    10536    10540 1
   10980    10537    10538 1
   10981    10537    10549 1
   10982    10541    10542 1
   10983    10541    10549 1
   10984    10542    10543 1
   10985    10542    10550 1
   10986    10543    10544 1
   10987    10543    10653 1
   10988    10544    10545 1
   10989    10544    10548 1
   10990    10545    10546 1
   10991    10546    10547 1
   10992    10547    10548 1
   10993    10548    10549 1
   10994    10551    10552 1
   10995    10551    10567 1
   10996    10551    10568 1
   10997    10552    10553 1
   10998    10552    10569 1
   10999    10552    10570 1
   11000    10553    10554 1
   11001    10553    10571 1
   11002    10553    10572 1
   11003    10554    10555 1
   11004    10554    10573 1
   11005    10554    10574 1
   11006    10555    10556 1
   11007    10555    10575 1
   11008    10555    10576 1
   11009    10556    10557 1
   11010    10556    10577 1
   11011    10556    10578 1
   11012    10557    10558 1
   11013    10557    10579 1
   11014    10557    10580 1
   11015    10558    10559 1
   11016    10558    10581 1
   11017    10558    10582 1
   11018    10559    10560 1
   11019    10559    10583 1
   11020    10559    10584 1
   11021    10560    10561 1
   11022    10560    10585 1
   11023    10560    10586 1
   11024    10561    10562 1
   11025    10561    10587 1
   11026    10561    10588 1
   11027    10562    10563 1
   11028    10562    10589 1
   11029    10562    10590 1
   11030    10563    10564 1
   11031    10563    10591 1
   11032    10563    10592 1
   11033    10564    10565 1
   11034    10564    10593 1
   11035    10564    10594 1
   11036    10565    10566 1
   11037    10565    10595 1
   11038    10565    10596 1
   11039    10566    10597 1
   11040    10566    10598 1
   11041    10566    10599 1
   11042    10600    10601 1
   11043    10600    10616 1
   11044    10600    10617 1
   11045    10601    10602 1
   11046    10601    10618 1
   11047    10601    10619 1
   11048    10602    10603 1
   11049    10602    10620 1
   11050    10602    10621 1
   11051    10603    10604 1
   11052    10603    10622 1
   11053    10603    10623 1
   11054    10604    10605 1
   11055    10604    10624 1
   11056    10604    10625 1
   11057    10605    10606 1
   11058    10605    10626 1
   11059    10605    10627 1
   11060    10606    10607 1
   11061    10606    10628 1
   11062    10606    10629 1
   11063    10607    10608 1
   11064    10607    10630 1
   11065    10607    10631 1
   11066    10608    10609 1
   11067    10608    10632 1
   11068    10608    10633 1
   11069    10609    10610 1
   11070    10609    10634 1
   11071    10609    10635 1
   11072    10610    10611 1
   11073    10610    10636 1
   11074    10610    10637 1
   11075    10611    10612 1
   11076    10611    10638 1
   11077    10611    10639 1
   11078    10612    10613 1
   11079    10612    10640 1
   11080    10612    10641 1
   11081    10613    10614 1
   11082    10613    10642 1
   11083    10613    10643 1
   11084    10614    10615 1
   11085    10614    10644 1
   11086    10614    10645 1
   11087    10615    10646 1
   11088    10615    10647 1
   11089    10615    10648 1
   11090    10649    10650 1
   11091    10649    10656 1
   11092    10649    10672 1
   11093    10649    10721 1
   11094    10650    10651 1
   11095    10650    10654 1
   11096    10651    10652 1
   11097    10651    10655 1
   11098    10652    10653 1
   11099    10653    10654 1
   11100    10654    10660 1
   11101    10655    10656 1
   11102    10655    10659 1
   11103    10656    10657 1
   11104    10657    10658 1
   11105    10657    10661 1
   11106    10658    10659 1
   11107    10658    10670 1
   11108    10662    10663 1
   11109    10662    10670 1
   11110    10663    10664 1
   11111    10663    10671 1
   11112    10664    10665 1
   11113    10664    10774 1
   11114    10665    10666 1
   11115    10665    10669 1
   11116    10666    10667 1
   11117    10667    10668 1
   11118    10668    10669 1
   11119    10669    10670 1
   11120    10672    10673 1
   11121    10672    10688 1
   11122    10672    10689 1
   11123    10673    10674 1
   11124    10673    10690 1
   11125    10673    10691 1
   11126    10674    10675 1
   11127    10674    10692 1
   11128    10674    10693 1
   11129    10675    10676 1
   11130    10675    10694 1
   11131    10675    10695 1
   11132    10676    10677 1
   11133    10676    10696 1
   11134    10676    10697 1
   11135    10677    10678 1
   11136    10677    10698 1
   11137    10677    10699 1
   11138    10678    10679 1
   11139    10678    10700 1
   11140    10678    10701 1
   11141    10679    10680 1
   11142    10679    10702 1
   11143    10679    10703 1
   11144    10680    10681 1
   11145    10680    10704 1
   11146    10680    10705 1
   11147    10681    10682 1
   11148    10681    10706 1
   11149    10681    10707 1
   11150    10682    10683 1
   11151    10682    10708 1
   11152    10682    10709 1
   11153    10683    10684 1
   11154    10683    10710 1
   11155    10683    10711 1
   11156    10684    10685 1
   11157    10684    10712 1
   11158    10684    10713 1
   11159    10685    10686 1
   11160    10685    10714 1
   11161    10685    10715 1
   11162    10686    10687 1
   11163    10686    10716 1
   11164    10686    10717 1
   11165    10687    10718 1
   11166    10687    10719 1
   11167    10687    10720 1
   11168    10721    10722 1
   11169    10721    10737 1
   11170    10721    10738 1
   11171    10722    10723 1
   11172    10722    10739 1
   11173    10722    10740 1
   11174    10723    10724 1
   11175    10723    10741 1
   11176    10723    10742 1
   11177    10724    10725 1
   11178    10724    10743 1
   11179    10724    10744 1
   11180    10725    10726 1
   11181    10725    10745 1
   11182    10725    10746 1
   11183    10726    10727 1
   11184    10726    10747 1
   11185    10726    10748 1
   11186    10727    10728 1
   11187    10727    10749 1
   11188    10727    10750 1
   11189    10728    10729 1
   11190    10728    10751 1
   11191    10728    10752 1
   11192    10729    10730 1
   11193    10729    10753 1
   11194    10729    10754 1
   11195    10730    10731 1
   11196    10730    10755 1
   11197    10730    10756 1
   11198    10731    10732 1
   11199    10731    10757 1
   11200    10731    10758 1
   11201    10732    10733 1
   11202    10732    10759 1
   11203    10732    10760 1
   11204    10733    10734 1
   11205    10733    10761 1
   11206    10733    10762 1
   11207    10734    10735 1
   11208    10734    10763 1
   11209    10734    10764 1
   11210    10735    10736 1
   11211    10735    10765 1
   11212    10735    10766 1
   11213    10736    10767 1
   11214    10736    10768 1
   11215    10736    10769 1
   11216    10770    10771 1
   11217    10770    10777 1
   11218    10770    10793 1
   11219    10770    10842 1
   11220    10771    10772 1
   11221    10771    10775 1
   11222    10772    10773 1
   11223    10772    10776 1
   11224    10773    10774 1
   11225    10774    10775 1
   11226    10775    10781 1
   11227    10776    10777 1
   11228    10776    10780 1
   11229    10777    10778 1
   11230    10778    10779 1
   11231    10778    10782 1
   11232    10779    10780 1
   11233    10779    10791 1
   11234    10783    10784 1
   11235    10783    10791 1
   11236    10784    10785 1
   11237    10784    10792 1
   11238    10785    10786 1
   11239    10785    10895 1
   11240    10786    10787 1
   11241    10786    10790 1
   11242    10787    10788 1
   11243    10788    10789 1
   11244    10789    10790 1
   11245    10790    10791 1
   11246    10793    10794 1
   11247    10793    10809 1
   11248    10793    10810 1
   11249    10794    10795 1
   11250    10794    10811 1
   11251    10794    10812 1
   11252    10795    10796 1
   11253    10795    10813 1
   11254    10795    10814 1
   11255    10796    10797 1
   11256    10796    10815 1
   11257    10796    10816 1
   11258    10797    10798 1
   11259    10797    10817 1
   11260    10797    10818 1
   11261    10798    10799 1
   11262    10798    10819 1
   11263    10798    10820 1
   11264    10799    10800 1
   11265    10799    10821 1
   11266    10799    10822 1
   11267    10800    10801 1
   11268    10800    10823 1
   11269    10800    10824 1
   11270    10801    10802 1
   11271    10801    10825 1
   11272    10801    10826 1
   11273    10802    10803 1
   11274    10802    10827 1
   11275    10802    10828 1
   11276    10803    10804 1
   11277    10803    10829 1
   11278    10803    10830 1
   11279    10804    10805 1
   11280    10804    10831 1
   11281    10804    10832 1
   11282    10805    10806 1
   11283    10805    10833 1
   11284    10805    10834 1
   11285    10806    10807 1
   11286    10806    10835 1
   11287    10806    10836 1
   11288    10807    10808 1
   11289    10807    10837 1
   11290    10807    10838 1
   11291    10808    10839 1
   11292    10808    10840 1
   11293    10808    10841 1
   11294    10842    10843 1
   11295    10842    10858 1
   11296    10842    10859 1
   11297    10843    10844 1
   11298    10843    10860 1
   11299    10843    10861 1
   11300    10844    10845 1
   11301    10844    10862 1
   11302    10844    10863 1
   11303    10845    10846 1
   11304    10845    10864 1
   11305    10845    10865 1
   11306    10846    10847 1
   11307    10846    10866 1
   11308    10846    10867 1
   11309    10847    10848 1
   11310    10847    10868 1
   11311    10847    10869 1
   11312    10848    10849 1
   11313    10848    10870 1
   11314    10848    10871 1
   11315    10849    10850 1
   11316    10849    10872 1
   11317    10849    10873 1
   11318    10850    10851 1
   11319    10850    10874 1
   11320    10850    10875 1
   11321    10851    10852 1
   11322    10851    10876 1
   11323    10851    10877 1
   11324    10852    10853 1
   11325    10852    10878 1
   11326    10852    10879 1
   11327    10853    10854 1
   11328    10853    10880 1
   11329    10853    10881 1
   11330    10854    10855 1
   11331    10854    10882 1
   11332    10854    10883 1
   11333    10855    10856 1
   11334    10855    10884 1
   11335    10855    10885 1
   11336    10856    10857 1
   11337    10856    10886 1
   11338    10856    10887 1
   11339    10857    10888 1
   11340    10857    10889 1
   11341    10857    10890 1
   11342    10891    10892 1
   11343    10891    10898 1
   11344    10891    10914 1
   11345    10891    10963 1
   11346    10892    10893 1
   11347    10892    10896 1
   11348    10893    10894 1
   11349    10893    10897 1
   11350    10894    10895 1
   11351    10895    10896 1
   11352    10896    10902 1
   11353    10897    10898 1
   11354    10897    10901 1
   11355    10898    10899 1
   11356    10899    10900 1
   11357    10899    10903 1
   11358    10900    10901 1
   11359    10900    10912 1
   11360    10904    10905 1
   11361    10904    10912 1
   11362    10905    10906 1
   11363    10905    10913 1
   11364    10906    10907 1
   11365    10906    11016 1
   11366    10907    10908 1
   11367    10907    10911 1
   11368    10908    10909 1
   11369    10909    10910 1
   11370    10910    10911 1
   11371    10911    10912 1
   11372    10914    10915 1
   11373    10914    10930 1
   11374    10914    10931 1
   11375    10915    10916 1
   11376    10915    10932 1
   11377    10915    10933 1
   11378    10916    10917 1
   11379    10916    10934 1
   11380    10916    10935 1
   11381    10917    10918 1
   11382    10917    10936 1
   11383    10917    10937 1
   11384    10918    10919 1
   11385    10918    10938 1
   11386    10918    10939 1
   11387    10919    10920 1
   11388    10919    10940 1
   11389    10919    10941 1
   11390    10920    10921 1
   11391    10920    10942 1
   11392    10920    10943 1
   11393    10921    10922 1
   11394    10921    10944 1
   11395    10921    10945 1
   11396    10922    10923 1
   11397    10922    10946 1
   11398    10922    10947 1
   11399    10923    10924 1
   11400    10923    10948 1
   11401    10923    10949 1
   11402    10924    10925 1
   11403    10924    10950 1
   11404    10924    10951 1
   11405    10925    10926 1
   11406    10925    10952 1
   11407    10925    10953 1
   11408    10926    10927 1
   11409    10926    10954 1
   11410    10926    10955 1
   11411    10927    10928 1
   11412    10927    10956 1
   11413    10927    10957 1
   11414    10928    10929 1
   11415    10928    10958 1
   11416    10928    10959 1
   11417    10929    10960 1
   11418    10929    10961 1
   11419    10929    10962 1
   11420    10963    10964 1
   11421    10963    10979 1
   11422    10963    10980 1
   11423    10964    10965 1
   11424    10964    10981 1
   11425    10964    10982 1
   11426    10965    10966 1
   11427    10965    10983 1
   11428    10965    10984 1
   11429    10966    10967 1
   11430    10966    10985 1
   11431    10966    10986 1
   11432    10967    10968 1
   11433    10967    10987 1
   11434    10967    10988 1
   11435    10968    10969 1
   11436    10968    10989 1
   11437    10968    10990 1
   11438    10969    10970 1
   11439    10969    10991 1
   11440    10969    10992 1
   11441    10970    10971 1
   11442    10970    10993 1
   11443    10970    10994 1
   11444    10971    10972 1
   11445    10971    10995 1
   11446    10971    10996 1
   11447    10972    10973 1
   11448    10972    10997 1
   11449    10972    10998 1
   11450    10973    10974 1
   11451    10973    10999 1
   11452    10973    11000 1
   11453    10974    10975 1
   11454    10974    11001 1
   11455    10974    11002 1
   11456    10975    10976 1
   11457    10975    11003 1
   11458    10975    11004 1
   11459    10976    10977 1
   11460    10976    11005 1
   11461    10976    11006 1
   11462    10977    10978 1
   11463    10977    11007 1
   11464    10977    11008 1
   11465    10978    11009 1
   11466    10978    11010 1
   11467    10978    11011 1
   11468    11012    11013 1
   11469    11012    11019 1
   11470    11012    11035 1
   11471    11012    11084 1
   11472    11013    11014 1
   11473    11013    11017 1
   11474    11014    11015 1
   11475    11014    11018 1
   11476    11015    11016 1
   11477    11016    11017 1
   11478    11017    11023 1
   11479    11018    11019 1
   11480    11018    11022 1
   11481    11019    11020 1
   11482    11020    11021 1
   11483    11020    11024 1
   11484    11021    11022 1
   11485    11021    11033 1
   11486    11025    11026 1
   11487    11025    11033 1
   11488    11026    11027 1
   11489    11026    11034 1
   11490    11027    11028 1
   11491    11027    11137 1
   11492    11028    11029 1
   11493    11028    11032 1
   11494    11029    11030 1
   11495    11030    11031 1
   11496    11031    11032 1
   11497    11032    11033 1
   11498    11035    11036 1
   11499    11035    11051 1
   11500    11035    11052 1
   11501    11036    11037 1
   11502    11036    11053 1
   11503    11036    11054 1
   11504    11037    11038 1
   11505    11037    11055 1
   11506    11037    11056 1
   11507    11038    11039 1
   11508    11038    11057 1
   11509    11038    11058 1
   11510    11039    11040 1
   11511    11039    11059 1
   11512    11039    11060 1
   11513    11040    11041 1
   11514    11040    11061 1
   11515    11040    11062 1
   11516    11041    11042 1
   11517    11041    11063 1
   11518    11041    11064 1
   11519    11042    11043 1
   11520    11042    11065 1
   11521    11042    11066 1
   11522    11043    11044 1
   11523    11043    11067 1
   11524    11043    11068 1
   11525    11044    11045 1
   11526    11044    11069 1
   11527    11044    11070 1
   11528    11045    11046 1
   11529    11045    11071 1
   11530    11045    11072 1
   11531    11046    11047 1
   11532    11046    11073 1
   11533    11046    11074 1
   11534    11047    11048 1
   11535    11047    11075 1
   11536    11047    11076 1
   11537    11048    11049 1
   11538    11048    11077 1
   11539    11048    11078 1
   11540    11049    11050 1
   11541    11049    11079 1
   11542    11049    11080 1
   11543    11050    11081 1
   11544    11050    11082 1
   11545    11050    11083 1
   11546    11084    11085 1
   11547    11084    11100 1
   11548    11084    11101 1
   11549    11085    11086 1
   11550    11085    11102 1
   11551    11085    11103 1
   11552    11086    11087 1
   11553    11086    11104 1
   11554    11086    11105 1
   11555    11087    11088 1
   11556    11087    11106 1
   11557    11087    11107 1
   11558    11088    11089 1
   11559    11088    11108 1
   11560    11088    11109 1
   11561    11089    11090 1
   11562    11089    11110 1
   11563    11089    11111 1
   11564    11090    11091 1
   11565    11090    11112 1
   11566    11090    11113 1
   11567    11091    11092 1
   11568    11091    11114 1
   11569    11091    11115 1
   11570    11092    11093 1
   11571    11092    11116 1
   11572    11092    11117 1
   11573    11093    11094 1
   11574    11093    11118 1
   11575    11093    11119 1
   11576    11094    11095 1
   11577    11094    11120 1
   11578    11094    11121 1
   11579    11095    11096 1
   11580    11095    11122 1
   11581    11095    11123 1
   11582    11096    11097 1
   11583    11096    11124 1
   11584    11096    11125 1
   11585    11097    11098 1
   11586    11097    11126 1
   11587    11097    11127 1
   11588    11098    11099 1
   11589    11098    11128 1
   11590    11098    11129 1
   11591    11099    11130 1
   11592    11099    11131 1
   11593    11099    11132 1
   11594    11133    11134 1
   11595    11133    11140 1
   11596    11133    11156 1
   11597    11133    11205 1
   11598    11134    11135 1
   11599    11134    11138 1
   11600    11135    11136 1
   11601    11135    11139 1
   11602    11136    11137 1
   11603    11137    11138 1
   11604    11138    11144 1
   11605    11139    11140 1
   11606    11139    11143 1
   11607    11140    11141 1
   11608    11141    11142 1
   11609    11141    11145 1
   11610    11142    11143 1
   11611    11142    11154 1
   11612    11146    11147 1
   11613    11146    11154 1
   11614    11147    11148 1
   11615    11147    11155 1
   11616    11148    11149 1
   11617    11148    11258 1
   11618    11149    11150 1
   11619    11149    11153 1
   11620    11150    11151 1
   11621    11151    11152 1
   11622    11152    11153 1
   11623    11153    11154 1
   11624    11156    11157 1
   11625    11156    11172 1
   11626    11156    11173 1
   11627    11157    11158 1
   11628    11157    11174 1
   11629    11157    11175 1
   11630    11158    11159 1
   11631    11158    11176 1
   11632    11158    11177 1
   11633    11159    11160 1
   11634    11159    11178 1
   11635    11159    11179 1
   11636    11160    11161 1
   11637    11160    11180 1
   11638    11160    11181 1
   11639    11161    11162 1
   11640    11161    11182 1
   11641    11161    11183 1
   11642    11162    11163 1
   11643    11162    11184 1
   11644    11162    11185 1
   11645    11163    11164 1
   11646    11163    11186 1
   11647    11163    11187 1
   11648    11164    11165 1
   11649    11164    11188 1
   11650    11164    11189 1
   11651    11165    11166 1
   11652    11165    11190 1
   11653    11165    11191 1
   11654    11166    11167 1
   11655    11166    11192 1
   11656    11166    11193 1
   11657    11167    11168 1
   11658    11167    11194 1
   11659    11167    11195 1
   11660    11168    11169 1
   11661    11168    11196 1
   11662    11168    11197 1
   11663    11169    11170 1
   11664    11169    11198 1
   11665    11169    11199 1
   11666    11170    11171 1
   11667    11170    11200 1
   11668    11170    11201 1
   11669    11171    11202 1
   11670    11171    11203 1
   11671    11171    11204 1
   11672    11205    11206 1
   11673    11205    11221 1
   11674    11205    11222 1
   11675    11206    11207 1
   11676    11206    11223 1
   11677    11206    11224 1
   11678    11207    11208 1
   11679    11207    11225 1
   11680    11207    11226 1
   11681    11208    11209 1
   11682    11208    11227 1
   11683    11208    11228 1
   11684    11209    11210 1
   11685    11209    11229 1
   11686    11209    11230 1
   11687    11210    11211 1
   11688    11210    11231 1
   11689    11210    11232 1
   11690    11211    11212 1
   11691    11211    11233 1
   11692    11211    11234 1
   11693    11212    11213 1
   11694    11212    11235 1
   11695    11212    11236 1
   11696    11213    11214 1
   11697    11213    11237 1
   11698    11213    11238 1
   11699    11214    11215 1
   11700    11214    11239 1
   11701    11214    11240 1
   11702    11215    11216 1
   11703    11215    11241 1
   11704    11215    11242 1
   11705    11216    11217 1
   11706    11216    11243 1
   11707    11216    11244 1
   11708    11217    11218 1
   11709    11217    11245 1
   11710    11217    11246 1
   11711    11218    11219 1
   11712    11218    11247 1
   11713    11218    11248 1
   11714    11219    11220 1
   11715    11219    11249 1
   11716    11219    11250 1
   11717    11220    11251 1
   11718    11220    11252 1
   11719    11220    11253 1
   11720    11254    11255 1
   11721    11254    11261 1
   11722    11254    11277 1
   11723    11254    11326 1
   11724    11255    11256 1
   11725    11255    11259 1
   11726    11256    11257 1
   11727    11256    11260 1
   11728    11257    11258 1
   11729    11258    11259 1
   11730    11259    11265 1
   11731    11260    11261 1
   11732    11260    11264 1
   11733    11261    11262 1
   11734    11262    11263 1
   11735    11262    11266 1
   11736    11263    11264 1
   11737    11263    11275 1
   11738    11267    11268 1
   11739    11267    11275 1
   11740    11268    11269 1
   11741    11268    11276 1
   11742    11269    11270 1
   11743    11269    11379 1
   11744    11270    11271 1
   11745    11270    11274 1
   11746    11271    11272 1
   11747    11272    11273 1
   11748    11273    11274 1
   11749    11274    11275 1
   11750    11277    11278 1
   11751    11277    11293 1
   11752    11277    11294 1
   11753    11278    11279 1
   11754    11278    11295 1
   11755    11278    11296 1
   11756    11279    11280 1
   11757    11279    11297 1
   11758    11279    11298 1
   11759    11280    11281 1
   11760    11280    11299 1
   11761    11280    11300 1
   11762    11281    11282 1
   11763    11281    11301 1
   11764    11281    11302 1
   11765    11282    11283 1
   11766    11282    11303 1
   11767    11282    11304 1
   11768    11283    11284 1
   11769    11283    11305 1
   11770    11283    11306 1
   11771    11284    11285 1
   11772    11284    11307 1
   11773    11284    11308 1
   11774    11285    11286 1
   11775    11285    11309 1
   11776    11285    11310 1
   11777    11286    11287 1
   11778    11286    11311 1
   11779    11286    11312 1
   11780    11287    11288 1
   11781    11287    11313 1
   11782    11287    11314 1
   11783    11288    11289 1
   11784    11288    11315 1
   11785    11288    11316 1
   11786    11289    11290 1
   11787    11289    11317 1
   11788    11289    11318 1
   11789    11290    11291 1
   11790    11290    11319 1
   11791    11290    11320 1
   11792    11291    11292 1
   11793    11291    11321 1
   11794    11291    11322 1
   11795    11292    11323 1
   11796    11292    11324 1
   11797    11292    11325 1
   11798    11326    11327 1
   11799    11326    11342 1
   11800    11326    11343 1
   11801    11327    11328 1
   11802    11327    11344 1
   11803    11327    11345 1
   11804    11328    11329 1
   11805    11328    11346 1
   11806    11328    11347 1
   11807    11329    11330 1
   11808    11329    11348 1
   11809    11329    11349 1
   11810    11330    11331 1
   11811    11330    11350 1
   11812    11330    11351 1
   11813    11331    11332 1
   11814    11331    11352 1
   11815    11331    11353 1
   11816    11332    11333 1
   11817    11332    11354 1
   11818    11332    11355 1
   11819    11333    11334 1
   11820    11333    11356 1
   11821    11333    11357 1
   11822    11334    11335 1
   11823    11334    11358 1
   11824    11334    11359 1
   11825    11335    11336 1
   11826    11335    11360 1
   11827    11335    11361 1
   11828    11336    11337 1
   11829    11336    11362 1
   11830    11336    11363 1
   11831    11337    11338 1
   11832    11337    11364 1
   11833    11337    11365 1
   11834    11338    11339 1
   11835    11338    11366 1
   11836    11338    11367 1
   11837    11339    11340 1
   11838    11339    11368 1
   11839    11339    11369 1
   11840    11340    11341 1
   11841    11340    11370 1
   11842    11340    11371 1
   11843    11341    11372 1
   11844    11341    11373 1
   11845    11341    11374 1
   11846    11375    11376 1
   11847    11375    11382 1
   11848    11375    11398 1
   11849    11375    11447 1
   11850    11376    11377 1
   11851    11376    11380 1
   11852    11377    11378 1
   11853    11377    11381 1
   11854    11378    11379 1
   11855    11379    11380 1
   11856    11380    11386 1
   11857    11381    11382 1
   11858    11381    11385 1
   11859    11382    11383 1
   11860    11383    11384 1
   11861    11383    11387 1
   11862    11384    11385 1
   11863    11384    11396 1
   11864    11388    11389 1
   11865    11388    11396 1
   11866    11389    11390 1
   11867    11389    11397 1
   11868    11390    11391 1
   11869    11390    11500 1
   11870    11391    11392 1
   11871    11391    11395 1
   11872    11392    11393 1
   11873    11393    11394 1
   11874    11394    11395 1
   11875    11395    11396 1
   11876    11398    11399 1
   11877    11398    11414 1
   11878    11398    11415 1
   11879    11399    11400 1
   11880    11399    11416 1
   11881    11399    11417 1
   11882    11400    11401 1
   11883    11400    11418 1
   11884    11400    11419 1
   11885    11401    11402 1
   11886    11401    11420 1
   11887    11401    11421 1
   11888    11402    11403 1
   11889    11402    11422 1
   11890    11402    11423 1
   11891    11403    11404 1
   11892    11403    11424 1
   11893    11403    11425 1
   11894    11404    11405 1
   11895    11404    11426 1
   11896    11404    11427 1
   11897    11405    11406 1
   11898    11405    11428 1
   11899    11405    11429 1
   11900    11406    11407 1
   11901    11406    11430 1
   11902    11406    11431 1
   11903    11407    11408 1
   11904    11407    11432 1
   11905    11407    11433 1
   11906    11408    11409 1
   11907    11408    11434 1
   11908    11408    11435 1
   11909    11409    11410 1
   11910    11409    11436 1
   11911    11409    11437 1
   11912    11410    11411 1
   11913    11410    11438 1
   11914    11410    11439 1
   11915    11411    11412 1
   11916    11411    11440 1
   11917    11411    11441 1
   11918    11412    11413 1
   11919    11412    11442 1
   11920    11412    11443 1
   11921    11413    11444 1
   11922    11413    11445 1
   11923    11413    11446 1
   11924    11447    11448 1
   11925    11447    11463 1
   11926    11447    11464 1
   11927    11448    11449 1
   11928    11448    11465 1
   11929    11448    11466 1
   11930    11449    11450 1
   11931    11449    11467 1
   11932    11449    11468 1
   11933    11450    11451 1
   11934    11450    11469 1
   11935    11450    11470 1
   11936    11451    11452 1
   11937    11451    11471 1
   11938    11451    11472 1
   11939    11452    11453 1
   11940    11452    11473 1
   11941    11452    11474 1
   11942    11453    11454 1
   11943    11453    11475 1
   11944    11453    11476 1
   11945    11454    11455 1
   11946    11454    11477 1
   11947    11454    11478 1
   11948    11455    11456 1
   11949    11455    11479 1
   11950    11455    11480 1
   11951    11456    11457 1
   11952    11456    11481 1
   11953    11456    11482 1
   11954    11457    11458 1
   11955    11457    11483 1
   11956    11457    11484 1
   11957    11458    11459 1
   11958    11458    11485 1
   11959    11458    11486 1
   11960    11459    11460 1
   11961    11459    11487 1
   11962    11459    11488 1
   11963    11460    11461 1
   11964    11460    11489 1
   11965    11460    11490 1
   11966    11461    11462 1
   11967    11461    11491 1
   11968    11461    11492 1
   11969    11462    11493 1
   11970    11462    11494 1
   11971    11462    11495 1
   11972    11496    11497 1
   11973    11496    11503 1
   11974    11496    11519 1
   11975    11496    11568 1
   11976    11497    11498 1
   11977    11497    11501 1
   11978    11498    11499 1
   11979    11498    11502 1
   11980    11499    11500 1
   11981    11500    11501 1
   11982    11501    11507 1
   11983    11502    11503 1
   11984    11502    11506 1
   11985    11503    11504 1
   11986    11504    11505 1
   11987    11504    11508 1
   11988    11505    11506 1
   11989    11505    11517 1
   11990    11509    11510 1
   11991    11509    11517 1
   11992    11510    11511 1
   11993    11510    11518 1
   11994    11511    11512 1
   11995    11511    11621 1
   11996    11512    11513 1
   11997    11512    11516 1
   11998    11513    11514 1
   11999    11514    11515 1
   12000    11515    11516 1
   12001    11516    11517 1
   12002    11519    11520 1
   12003    11519    11535 1
   12004    11519    11536 1
   12005    11520    11521 1
   12006    11520    11537 1
   12007    11520    11538 1
   12008    11521    11522 1
   12009    11521    11539 1
   12010    11521    11540 1
   12011    11522    11523 1
   12012    11522    11541 1
   12013    11522    11542 1
   12014    11523    11524 1
   12015    11523    11543 1
   12016    11523    11544 1
   12017    11524    11525 1
   12018    11524    11545 1
   12019    11524    11546 1
   12020    11525    11526 1
   12021    11525    11547 1
   12022    11525    11548 1
   12023    11526    11527 1
   12024    11526    11549 1
   12025    11526    11550 1
   12026    11527    11528 1
   12027    11527    11551 1
   12028    11527    11552 1
   12029    11528    11529 1
   12030    11528    11553 1
   12031    11528    11554 1
   12032    11529    11530 1
   12033    11529    11555 1
   12034    11529    11556 1
   12035    11530    11531 1
   12036    11530    11557 1
   12037    11530    11558 1
   12038    11531    11532 1
   12039    11531    11559 1
   12040    11531    11560 1
   12041    11532    11533 1
   12042    11532    11561 1
   12043    11532    11562 1
   12044    11533    11534 1
   12045    11533    11563 1
   12046    11533    11564 1
   12047    11534    11565 1
   12048    11534    11566 1
   12049    11534    11567 1
   12050    11568    11569 1
   12051    11568    11584 1
   12052    11568    11585 1
   12053    11569    11570 1
   12054    11569    11586 1
   12055    11569    11587 1
   12056    11570    11571 1
   12057    11570    11588 1
   12058    11570    11589 1
   12059    11571    11572 1
   12060    11571    11590 1
   12061    11571    11591 1
   12062    11572    11573 1
   12063    11572    11592 1
   12064    11572    11593 1
   12065    11573    11574 1
   12066    11573    11594 1
   12067    11573    11595 1
   12068    11574    11575 1
   12069    11574    11596 1
   12070    11574    11597 1
   12071    11575    11576 1
   12072    11575    11598 1
   12073    11575    11599 1
   12074    11576    11577 1
   12075    11576    11600 1
   12076    11576    11601 1
   12077    11577    11578 1
   12078    11577    11602 1
   12079    11577    11603 1
   12080    11578    11579 1
   12081    11578    11604 1
   12082    11578    11605 1
   12083    11579    11580 1
   12084    11579    11606 1
   12085    11579    11607 1
   12086    11580    11581 1
   12087    11580    11608 1
   12088    11580    11609 1
   12089    11581    11582 1
   12090    11581    11610 1
   12091    11581    11611 1
   12092    11582    11583 1
   12093    11582    11612 1
   12094    11582    11613 1
   12095    11583    11614 1
   12096    11583    11615 1
   12097    11583    11616 1
   12098    11617    11618 1
   12099    11617    11624 1
   12100    11617    11640 1
   12101    11617    11689 1
   12102    11618    11619 1
   12103    11618    11622 1
   12104    11619    11620 1
   12105    11619    11623 1
   12106    11620    11621 1
   12107    11621    11622 1
   12108    11622    11628 1
   12109    11623    11624 1
   12110    11623    11627 1
   12111    11624    11625 1
   12112    11625    11626 1
   12113    11625    11629 1
   12114    11626    11627 1
   12115    11626    11638 1
   12116    11630    11631 1
   12117    11630    11638 1
   12118    11631    11632 1
   12119    11631    11639 1
   12120    11632    11633 1
   12121    11632    11742 1
   12122    11633    11634 1
   12123    11633    11637 1
   12124    11634    11635 1
   12125    11635    11636 1
   12126    11636    11637 1
   12127    11637    11638 1
   12128    11640    11641 1
   12129    11640    11656 1
   12130    11640    11657 1
   12131    11641    11642 1
   12132    11641    11658 1
   12133    11641    11659 1
   12134    11642    11643 1
   12135    11642    11660 1
   12136    11642    11661 1
   12137    11643    11644 1
   12138    11643    11662 1
   12139    11643    11663 1
   12140    11644    11645 1
   12141    11644    11664 1
   12142    11644    11665 1
   12143    11645    11646 1
   12144    11645    11666 1
   12145    11645    11667 1
   12146    11646    11647 1
   12147    11646    11668 1
   12148    11646    11669 1
   12149    11647    11648 1
   12150    11647    11670 1
   12151    11647    11671 1
   12152    11648    11649 1
   12153    11648    11672 1
   12154    11648    11673 1
   12155    11649    11650 1
   12156    11649    11674 1
   12157    11649    11675 1
   12158    11650    11651 1
   12159    11650    11676 1
   12160    11650    11677 1
   12161    11651    11652 1
   12162    11651    11678 1
   12163    11651    11679 1
   12164    11652    11653 1
   12165    11652    11680 1
   12166    11652    11681 1
   12167    11653    11654 1
   12168    11653    11682 1
   12169    11653    11683 1
   12170    11654    11655 1
   12171    11654    11684 1
   12172    11654    11685 1
   12173    11655    11686 1
   12174    11655    11687 1
   12175    11655    11688 1
   12176    11689    11690 1
   12177    11689    11705 1
   12178    11689    11706 1
   12179    11690    11691 1
   12180    11690    11707 1
   12181    11690    11708 1
   12182    11691    11692 1
   12183    11691    11709 1
   12184    11691    11710 1
   12185    11692    11693 1
   12186    11692    11711 1
   12187    11692    11712 1
   12188    11693    11694 1
   12189    11693    11713 1
   12190    11693    11714 1
   12191    11694    11695 1
   12192    11694    11715 1
   12193    11694    11716 1
   12194    11695    11696 1
   12195    11695    11717 1
   12196    11695    11718 1
   12197    11696    11697 1
   12198    11696    11719 1
   12199    11696    11720 1
   12200    11697    11698 1
   12201    11697    11721 1
   12202    11697    11722 1
   12203    11698    11699 1
   12204    11698    11723 1
   12205    11698    11724 1
   12206    11699    11700 1
   12207    11699    11725 1
   12208    11699    11726 1
   12209    11700    11701 1
   12210    11700    11727 1
   12211    11700    11728 1
   12212    11701    11702 1
   12213    11701    11729 1
   12214    11701    11730 1
   12215    11702    11703 1
   12216    11702    11731 1
   12217    11702    11732 1
   12218    11703    11704 1
   12219    11703    11733 1
   12220    11703    11734 1
   12221    11704    11735 1
   12222    11704    11736 1
   12223    11704    11737 1
   12224    11738    11739 1
   12225    11738    11745 1
   12226    11738    11761 1
   12227    11738    11810 1
   12228    11739    11740 1
   12229    11739    11743 1
   12230    11740    11741 1
   12231    11740    11744 1
   12232    11741    11742 1
   12233    11742    11743 1
   12234    11743    11749 1
   12235    11744    11745 1
   12236    11744    11748 1
   12237    11745    11746 1
   12238    11746    11747 1
   12239    11746    11750 1
   12240    11747    11748 1
   12241    11747    11759 1
   12242    11751    11752 1
   12243    11751    11759 1
   12244    11752    11753 1
   12245    11752    11760 1
   12246    11753    11754 1
   12247    11753    11863 1
   12248    11754    11755 1
   12249    11754    11758 1
   12250    11755    11756 1
   12251    11756    11757 1
   12252    11757    11758 1
   12253    11758    11759 1
   12254    11761    11762 1
   12255    11761    11777 1
   12256    11761    11778 1
   12257    11762    11763 1
   12258    11762    11779 1
   12259    11762    11780 1
   12260    11763    11764 1
   12261    11763    11781 1
   12262    11763    11782 1
   12263    11764    11765 1
   12264    11764    11783 1
   12265    11764    11784 1
   12266    11765    11766 1
   12267    11765    11785 1
   12268    11765    11786 1
   12269    11766    11767 1
   12270    11766    11787 1
   12271    11766    11788 1
   12272    11767    11768 1
   12273    11767    11789 1
   12274    11767    11790 1
   12275    11768    11769 1
   12276    11768    11791 1
   12277    11768    11792 1
   12278    11769    11770 1
   12279    11769    11793 1
   12280    11769    11794 1
   12281    11770    11771 1
   12282    11770    11795 1
   12283    11770    11796 1
   12284    11771    11772 1
   12285    11771    11797 1
   12286    11771    11798 1
   12287    11772    11773 1
   12288    11772    11799 1
   12289    11772    11800 1
   12290    11773    11774 1
   12291    11773    11801 1
   12292    11773    11802 1
   12293    11774    11775 1
   12294    11774    11803 1
   12295    11774    11804 1
   12296    11775    11776 1
   12297    11775    11805 1
   12298    11775    11806 1
   12299    11776    11807 1
   12300    11776    11808 1
   12301    11776    11809 1
   12302    11810    11811 1
   12303    11810    11826 1
   12304    11810    11827 1
   12305    11811    11812 1
   12306    11811    11828 1
   12307    11811    11829 1
   12308    11812    11813 1
   12309    11812    11830 1
   12310    11812    11831 1
   12311    11813    11814 1
   12312    11813    11832 1
   12313    11813    11833 1
   12314    11814    11815 1
   12315    11814    11834 1
   12316    11814    11835 1
   12317    11815    11816 1
   12318    11815    11836 1
   12319    11815    11837 1
   12320    11816    11817 1
   12321    11816    11838 1
   12322    11816    11839 1
   12323    11817    11818 1
   12324    11817    11840 1
   12325    11817    11841 1
   12326    11818    11819 1
   12327    11818    11842 1
   12328    11818    11843 1
   12329    11819    11820 1
   12330    11819    11844 1
   12331    11819    11845 1
   12332    11820    11821 1
   12333    11820    11846 1
   12334    11820    11847 1
   12335    11821    11822 1
   12336    11821    11848 1
   12337    11821    11849 1
   12338    11822    11823 1
   12339    11822    11850 1
   12340    11822    11851 1
   12341    11823    11824 1
   12342    11823    11852 1
   12343    11823    11853 1
   12344    11824    11825 1
   12345    11824    11854 1
   12346    11824    11855 1
   12347    11825    11856 1
   12348    11825    11857 1
   12349    11825    11858 1
   12350    11859    11860 1
   12351    11859    11866 1
   12352    11859    11882 1
   12353    11859    11931 1
   12354    11860    11861 1
   12355    11860    11864 1
   12356    11861    11862 1
   12357    11861    11865 1
   12358    11862    11863 1
   12359    11863    11864 1
   12360    11864    11870 1
   12361    11865    11866 1
   12362    11865    11869 1
   12363    11866    11867 1
   12364    11867    11868 1
   12365    11867    11871 1
   12366    11868    11869 1
   12367    11868    11880 1
   12368    11872    11873 1
   12369    11872    11880 1
   12370    11873    11874 1
   12371    11873    11881 1
   12372    11874    11875 1
   12373    11874    11984 1
   12374    11875    11876 1
   12375    11875    11879 1
   12376    11876    11877 1
   12377    11877    11878 1
   12378    11878    11879 1
   12379    11879    11880 1
   12380    11882    11883 1
   12381    11882    11898 1
   12382    11882    11899 1
   12383    11883    11884 1
   12384    11883    11900 1
   12385    11883    11901 1
   12386    11884    11885 1
   12387    11884    11902 1
   12388    11884    11903 1
   12389    11885    11886 1
   12390    11885    11904 1
   12391    11885    11905 1
   12392    11886    11887 1
   12393    11886    11906 1
   12394    11886    11907 1
   12395    11887    11888 1
   12396    11887    11908 1
   12397    11887    11909 1
   12398    11888    11889 1
   12399    11888    11910 1
   12400    11888    11911 1
   12401    11889    11890 1
   12402    11889    11912 1
   12403    11889    11913 1
   12404    11890    11891 1
   12405    11890    11914 1
   12406    11890    11915 1
   12407    11891    11892 1
   12408    11891    11916 1
   12409    11891    11917 1
   12410    11892    11893 1
   12411    11892    11918 1
   12412    11892    11919 1
   12413    11893    11894 1
   12414    11893    11920 1
   12415    11893    11921 1
   12416    11894    11895 1
   12417    11894    11922 1
   12418    11894    11923 1
   12419    11895    11896 1
   12420    11895    11924 1
   12421    11895    11925 1
   12422    11896    11897 1
   12423    11896    11926 1
   12424    11896    11927 1
   12425    11897    11928 1
   12426    11897    11929 1
   12427    11897    11930 1
   12428    11931    11932 1
   12429    11931    11947 1
   12430    11931    11948 1
   12431    11932    11933 1
   12432    11932    11949 1
   12433    11932    11950 1
   12434    11933    11934 1
   12435    11933    11951 1
   12436    11933    11952 1
   12437    11934    11935 1
   12438    11934    11953 1
   12439    11934    11954 1
   12440    11935    11936 1
   12441    11935    11955 1
   12442    11935    11956 1
   12443    11936    11937 1
   12444    11936    11957 1
   12445    11936    11958 1
   12446    11937    11938 1
   12447    11937    11959 1
   12448    11937    11960 1
   12449    11938    11939 1
   12450    11938    11961 1
   12451    11938    11962 1
   12452    11939    11940 1
   12453    11939    11963 1
   12454    11939    11964 1
   12455    11940    11941 1
   12456    11940    11965 1
   12457    11940    11966 1
   12458    11941    11942 1
   12459    11941    11967 1
   12460    11941    11968 1
   12461    11942    11943 1
   12462    11942    11969 1
   12463    11942    11970 1
   12464    11943    11944 1
   12465    11943    11971 1
   12466    11943    11972 1
   12467    11944    11945 1
   12468    11944    11973 1
   12469    11944    11974 1
   12470    11945    11946 1
   12471    11945    11975 1
   12472    11945    11976 1
   12473    11946    11977 1
   12474    11946    11978 1
   12475    11946    11979 1
   12476    11980    11981 1
   12477    11980    11987 1
   12478    11980    12003 1
   12479    11980    12052 1
   12480    11981    11982 1
   12481    11981    11985 1
   12482    11982    11983 1
   12483    11982    11986 1
   12484    11983    11984 1
   12485    11984    11985 1
   12486    11985    11991 1
   12487    11986    11987 1
   12488    11986    11990 1
   12489    11987    11988 1
   12490    11988    11989 1
   12491    11988    11992 1
   12492    11989    11990 1
   12493    11989    12001 1
   12494    11993    11994 1
   12495    11993    12001 1
   12496    11994    11995 1
   12497    11994    12002 1
   12498    11995    11996 1
   12499    11995    12105 1
   12500    11996    11997 1
   12501    11996    12000 1
   12502    11997    11998 1
   12503    11998    11999 1
   12504    11999    12000 1
   12505    12000    12001 1
   12506    12003    12004 1
   12507    12003    12019 1
   12508    12003    12020 1
   12509    12004    12005 1
   12510    12004    12021 1
   12511    12004    12022 1
   12512    12005    12006 1
   12513    12005    12023 1
   12514    12005    12024 1
   12515    12006    12007 1
   12516    12006    12025 1
   12517    12006    12026 1
   12518    12007    12008 1
   12519    12007    12027 1
   12520    12007    12028 1
   12521    12008    12009 1
   12522    12008    12029 1
   12523    12008    12030 1
   12524    12009    12010 1
   12525    12009    12031 1
   12526    12009    12032 1
   12527    12010    12011 1
   12528    12010    12033 1
   12529    12010    12034 1
   12530    12011    12012 1
   12531    12011    12035 1
   12532    12011    12036 1
   12533    12012    12013 1
   12534    12012    12037 1
   12535    12012    12038 1
   12536    12013    12014 1
   12537    12013    12039 1
   12538    12013    12040 1
   12539    12014    12015 1
   12540    12014    12041 1
   12541    12014    12042 1
   12542    12015    12016 1
   12543    12015    12043 1
   12544    12015    12044 1
   12545    12016    12017 1
   12546    12016    12045 1
   12547    12016    12046 1
   12548    12017    12018 1
   12549    12017    12047 1
   12550    12017    12048 1
   12551    12018    12049 1
   12552    12018    12050 1
   12553    12018    12051 1
   12554    12052    12053 1
   12555    12052    12068 1
   12556    12052    12069 1
   12557    12053    12054 1
   12558    12053    12070 1
   12559    12053    12071 1
   12560    12054    12055 1
   12561    12054    12072 1
   12562    12054    12073 1
   12563    12055    12056 1
   12564    12055    12074 1
   12565    12055    12075 1
   12566    12056    12057 1
   12567    12056    12076 1
   12568    12056    12077 1
   12569    12057    12058 1
   12570    12057    12078 1
   12571    12057    12079 1
   12572    12058    12059 1
   12573    12058    12080 1
   12574    12058    12081 1
   12575    12059    12060 1
   12576    12059    12082 1
   12577    12059    12083 1
   12578    12060    12061 1
   12579    12060    12084 1
   12580    12060    12085 1
   12581    12061    12062 1
   12582    12061    12086 1
   12583    12061    12087 1
   12584    12062    12063 1
   12585    12062    12088 1
   12586    12062    12089 1
   12587    12063    12064 1
   12588    12063    12090 1
   12589    12063    12091 1
   12590    12064    12065 1
   12591    12064    12092 1
   12592    12064    12093 1
   12593    12065    12066 1
   12594    12065    12094 1
   12595    12065    12095 1
   12596    12066    12067 1
   12597    12066    12096 1
   12598    12066    12097 1
   12599    12067    12098 1
   12600    12067    12099 1
   12601    12067    12100 1
   12602    12101    12102 1
   12603    12101    12108 1
   12604    12101    12124 1
   12605    12101    12173 1
   12606    12102    12103 1
   12607    12102    12106 1
   12608    12103    12104 1
   12609    12103    12107 1
   12610    12104    12105 1
   12611    12105    12106 1
   12612    12106    12112 1
   12613    12107    12108 1
   12614    12107    12111 1
   12615    12108    12109 1
   12616    12109    12110 1
   12617    12109    12113 1
   12618    12110    12111 1
   12619    12110    12122 1
   12620    12114    12115 1
   12621    12114    12122 1
   12622    12115    12116 1
   12623    12115    12123 1
   12624    12116    12117 1
   12625    12116    12226 1
   12626    12117    12118 1
   12627    12117    12121 1
   12628    12118    12119 1
   12629    12119    12120 1
   12630    12120    12121 1
   12631    12121    12122 1
   12632    12124    12125 1
   12633    12124    12140 1
   12634    12124    12141 1
   12635    12125    12126 1
   12636    12125    12142 1
   12637    12125    12143 1
   12638    12126    12127 1
   12639    12126    12144 1
   12640    12126    12145 1
   12641    12127    12128 1
   12642    12127    12146 1
   12643    12127    12147 1
   12644    12128    12129 1
   12645    12128    12148 1
   12646    12128    12149 1
   12647    12129    12130 1
   12648    12129    12150 1
   12649    12129    12151 1
   12650    12130    12131 1
   12651    12130    12152 1
   12652    12130    12153 1
   12653    12131    12132 1
   12654    12131    12154 1
   12655    12131    12155 1
   12656    12132    12133 1
   12657    12132    12156 1
   12658    12132    12157 1
   12659    12133    12134 1
   12660    12133    12158 1
   12661    12133    12159 1
   12662    12134    12135 1
   12663    12134    12160 1
   12664    12134    12161 1
   12665    12135    12136 1
   12666    12135    12162 1
   12667    12135    12163 1
   12668    12136    12137 1
   12669    12136    12164 1
   12670    12136    12165 1
   12671    12137    12138 1
   12672    12137    12166 1
   12673    12137    12167 1
   12674    12138    12139 1
   12675    12138    12168 1
   12676    12138    12169 1
   12677    12139    12170 1
   12678    12139    12171 1
   12679    12139    12172 1
   12680    12173    12174 1
   12681    12173    12189 1
   12682    12173    12190 1
   12683    12174    12175 1
   12684    12174    12191 1
   12685    12174    12192 1
   12686    12175    12176 1
   12687    12175    12193 1
   12688    12175    12194 1
   12689    12176    12177 1
   12690    12176    12195 1
   12691    12176    12196 1
   12692    12177    12178 1
   12693    12177    12197 1
   12694    12177    12198 1
   12695    12178    12179 1
   12696    12178    12199 1
   12697    12178    12200 1
   12698    12179    12180 1
   12699    12179    12201 1
   12700    12179    12202 1
   12701    12180    12181 1
   12702    12180    12203 1
   12703    12180    12204 1
   12704    12181    12182 1
   12705    12181    12205 1
   12706    12181    12206 1
   12707    12182    12183 1
   12708    12182    12207 1
   12709    12182    12208 1
   12710    12183    12184 1
   12711    12183    12209 1
   12712    12183    12210 1
   12713    12184    12185 1
   12714    12184    12211 1
   12715    12184    12212 1
   12716    12185    12186 1
   12717    12185    12213 1
   12718    12185    12214 1
   12719    12186    12187 1
   12720    12186    12215 1
   12721    12186    12216 1
   12722    12187    12188 1
   12723    12187    12217 1
   12724    12187    12218 1
   12725    12188    12219 1
   12726    12188    12220 1
   12727    12188    12221 1
   12728    12222    12223 1
   12729    12222    12229 1
   12730    12222    12245 1
   12731    12222    12294 1
   12732    12223    12224 1
   12733    12223    12227 1
   12734    12224    12225 1
   12735    12224    12228 1
   12736    12225    12226 1
   12737    12226    12227 1
   12738    12227    12233 1
   12739    12228    12229 1
   12740    12228    12232 1
   12741    12229    12230 1
   12742    12230    12231 1
   12743    12230    12234 1
   12744    12231    12232 1
   12745    12231    12243 1
   12746    12235    12236 1
   12747    12235    12243 1
   12748    12236    12237 1
   12749    12236    12244 1
   12750    12237    12238 1
   12751    12237    12347 1
   12752    12238    12239 1
   12753    12238    12242 1
   12754    12239    12240 1
   12755    12240    12241 1
   12756    12241    12242 1
   12757    12242    12243 1
   12758    12245    12246 1
   12759    12245    12261 1
   12760    12245    12262 1
   12761    12246    12247 1
   12762    12246    12263 1
   12763    12246    12264 1
   12764    12247    12248 1
   12765    12247    12265 1
   12766    12247    12266 1
   12767    12248    12249 1
   12768    12248    12267 1
   12769    12248    12268 1
   12770    12249    12250 1
   12771    12249    12269 1
   12772    12249    12270 1
   12773    12250    12251 1
   12774    12250    12271 1
   12775    12250    12272 1
   12776    12251    12252 1
   12777    12251    12273 1
   12778    12251    12274 1
   12779    12252    12253 1
   12780    12252    12275 1
   12781    12252    12276 1
   12782    12253    12254 1
   12783    12253    12277 1
   12784    12253    12278 1
   12785    12254    12255 1
   12786    12254    12279 1
   12787    12254    12280 1
   12788    12255    12256 1
   12789    12255    12281 1
   12790    12255    12282 1
   12791    12256    12257 1
   12792    12256    12283 1
   12793    12256    12284 1
   12794    12257    12258 1
   12795    12257    12285 1
   12796    12257    12286 1
   12797    12258    12259 1
   12798    12258    12287 1
   12799    12258    12288 1
   12800    12259    12260 1
   12801    12259    12289 1
   12802    12259    12290 1
   12803    12260    12291 1
   12804    12260    12292 1
   12805    12260    12293 1
   12806    12294    12295 1
   12807    12294    12310 1
   12808    12294    12311 1
   12809    12295    12296 1
   12810    12295    12312 1
   12811    12295    12313 1
   12812    12296    12297 1
   12813    12296    12314 1
   12814    12296    12315 1
   12815    12297    12298 1
   12816    12297    12316 1
   12817    12297    12317 1
   12818    12298    12299 1
   12819    12298    12318 1
   12820    12298    12319 1
   12821    12299    12300 1
   12822    12299    12320 1
   12823    12299    12321 1
   12824    12300    12301 1
   12825    12300    12322 1
   12826    12300    12323 1
   12827    12301    12302 1
   12828    12301    12324 1
   12829    12301    12325 1
   12830    12302    12303 1
   12831    12302    12326 1
   12832    12302    12327 1
   12833    12303    12304 1
   12834    12303    12328 1
   12835    12303    12329 1
   12836    12304    12305 1
   12837    12304    12330 1
   12838    12304    12331 1
   12839    12305    12306 1
   12840    12305    12332 1
   12841    12305    12333 1
   12842    12306    12307 1
   12843    12306    12334 1
   12844    12306    12335 1
   12845    12307    12308 1
   12846    12307    12336 1
   12847    12307    12337 1
   12848    12308    12309 1
   12849    12308    12338 1
   12850    12308    12339 1
   12851    12309    12340 1
   12852    12309    12341 1
   12853    12309    12342 1
   12854    12343    12344 1
   12855    12343    12350 1
   12856    12343    12366 1
   12857    12343    12415 1
   12858    12344    12345 1
   12859    12344    12348 1
   12860    12345    12346 1
   12861    12345    12349 1
   12862    12346    12347 1
   12863    12347    12348 1
   12864    12348    12354 1
   12865    12349    12350 1
   12866    12349    12353 1
   12867    12350    12351 1
   12868    12351    12352 1
   12869    12351    12355 1
   12870    12352    12353 1
   12871    12352    12364 1
   12872    12356    12357 1
   12873    12356    12364 1
   12874    12357    12358 1
   12875    12357    12365 1
   12876    12358    12359 1
   12877    12358    12468 1
   12878    12359    12360 1
   12879    12359    12363 1
   12880    12360    12361 1
   12881    12361    12362 1
   12882    12362    12363 1
   12883    12363    12364 1
   12884    12366    12367 1
   12885    12366    12382 1
   12886    12366    12383 1
   12887    12367    12368 1
   12888    12367    12384 1
   12889    12367    12385 1
   12890    12368    12369 1
   12891    12368    12386 1
   12892    12368    12387 1
   12893    12369    12370 1
   12894    12369    12388 1
   12895    12369    12389 1
   12896    12370    12371 1
   12897    12370    12390 1
   12898    12370    12391 1
   12899    12371    12372 1
   12900    12371    12392 1
   12901    12371    12393 1
   12902    12372    12373 1
   12903    12372    12394 1
   12904    12372    12395 1
   12905    12373    12374 1
   12906    12373    12396 1
   12907    12373    12397 1
   12908    12374    12375 1
   12909    12374    12398 1
   12910    12374    12399 1
   12911    12375    12376 1
   12912    12375    12400 1
   12913    12375    12401 1
   12914    12376    12377 1
   12915    12376    12402 1
   12916    12376    12403 1
   12917    12377    12378 1
   12918    12377    12404 1
   12919    12377    12405 1
   12920    12378    12379 1
   12921    12378    12406 1
   12922    12378    12407 1
   12923    12379    12380 1
   12924    12379    12408 1
   12925    12379    12409 1
   12926    12380    12381 1
   12927    12380    12410 1
   12928    12380    12411 1
   12929    12381    12412 1
   12930    12381    12413 1
   12931    12381    12414 1
   12932    12415    12416 1
   12933    12415    12431 1
   12934    12415    12432 1
   12935    12416    12417 1
   12936    12416    12433 1
   12937    12416    12434 1
   12938    12417    12418 1
   12939    12417    12435 1
   12940    12417    12436 1
   12941    12418    12419 1
   12942    12418    12437 1
   12943    12418    12438 1
   12944    12419    12420 1
   12945    12419    12439 1
   12946    12419    12440 1
   12947    12420    12421 1
   12948    12420    12441 1
   12949    12420    12442 1
   12950    12421    12422 1
   12951    12421    12443 1
   12952    12421    12444 1
   12953    12422    12423 1
   12954    12422    12445 1
   12955    12422    12446 1
   12956    12423    12424 1
   12957    12423    12447 1
   12958    12423    12448 1
   12959    12424    12425 1
   12960    12424    12449 1
   12961    12424    12450 1
   12962    12425    12426 1
   12963    12425    12451 1
   12964    12425    12452 1
   12965    12426    12427 1
   12966    12426    12453 1
   12967    12426    12454 1
   12968    12427    12428 1
   12969    12427    12455 1
   12970    12427    12456 1
   12971    12428    12429 1
   12972    12428    12457 1
   12973    12428    12458 1
   12974    12429    12430 1
   12975    12429    12459 1
   12976    12429    12460 1
   12977    12430    12461 1
   12978    12430    12462 1
   12979    12430    12463 1
   12980    12464    12465 1
   12981    12464    12471 1
   12982    12464    12487 1
   12983    12464    12536 1
   12984    12465    12466 1
   12985    12465    12469 1
   12986    12466    12467 1
   12987    12466    12470 1
   12988    12467    12468 1
   12989    12468    12469 1
   12990    12469    12475 1
   12991    12470    12471 1
   12992    12470    12474 1
   12993    12471    12472 1
   12994    12472    12473 1
   12995    12472    12476 1
   12996    12473    12474 1
   12997    12473    12485 1
   12998    12477    12478 1
   12999    12477    12485 1
   13000    12478    12479 1
   13001    12478    12486 1
   13002    12479    12480 1
   13003    12479    12589 1
   13004    12480    12481 1
   13005    12480    12484 1
   13006    12481    12482 1
   13007    12482    12483 1
   13008    12483    12484 1
   13009    12484    12485 1
   13010    12487    12488 1
   13011    12487    12503 1
   13012    12487    12504 1
   13013    12488    12489 1
   13014    12488    12505 1
   13015    12488    12506 1
   13016    12489    12490 1
   13017    12489    12507 1
   13018    12489    12508 1
   13019    12490    12491 1
   13020    12490    12509 1
   13021    12490    12510 1
   13022    12491    12492 1
   13023    12491    12511 1
   13024    12491    12512 1
   13025    12492    12493 1
   13026    12492    12513 1
   13027    12492    12514 1
   13028    12493    12494 1
   13029    12493    12515 1
   13030    12493    12516 1
   13031    12494    12495 1
   13032    12494    12517 1
   13033    12494    12518 1
   13034    12495    12496 1
   13035    12495    12519 1
   13036    12495    12520 1
   13037    12496    12497 1
   13038    12496    12521 1
   13039    12496    12522 1
   13040    12497    12498 1
   13041    12497    12523 1
   13042    12497    12524 1
   13043    12498    12499 1
   13044    12498    12525 1
   13045    12498    12526 1
   13046    12499    12500 1
   13047    12499    12527 1
   13048    12499    12528 1
   13049    12500    12501 1
   13050    12500    12529 1
   13051    12500    12530 1
   13052    12501    12502 1
   13053    12501    12531 1
   13054    12501    12532 1
   13055    12502    12533 1
   13056    12502    12534 1
   13057    12502    12535 1
   13058    12536    12537 1
   13059    12536    12552 1
   13060    12536    12553 1
   13061    12537    12538 1
   13062    12537    12554 1
   13063    12537    12555 1
   13064    12538    12539 1
   13065    12538    12556 1
   13066    12538    12557 1
   13067    12539    12540 1
   13068    12539    12558 1
   13069    12539    12559 1
   13070    12540    12541 1
   13071    12540    12560 1
   13072    12540    12561 1
   13073    12541    12542 1
   13074    12541    12562 1
   13075    12541    12563 1
   13076    12542    12543 1
   13077    12542    12564 1
   13078    12542    12565 1
   13079    12543    12544 1
   13080    12543    12566 1
   13081    12543    12567 1
   13082    12544    12545 1
   13083    12544    12568 1
   13084    12544    12569 1
   13085    12545    12546 1
   13086    12545    12570 1
   13087    12545    12571 1
   13088    12546    12547 1
   13089    12546    12572 1
   13090    12546    12573 1
   13091    12547    12548 1
   13092    12547    12574 1
   13093    12547    12575 1
   13094    12548    12549 1
   13095    12548    12576 1
   13096    12548    12577 1
   13097    12549    12550 1
   13098    12549    12578 1
   13099    12549    12579 1
   13100    12550    12551 1
   13101    12550    12580 1
   13102    12550    12581 1
   13103    12551    12582 1
   13104    12551    12583 1
   13105    12551    12584 1
   13106    12585    12586 1
   13107    12585    12592 1
   13108    12585    12608 1
   13109    12585    12657 1
   13110    12586    12587 1
   13111    12586    12590 1
   13112    12587    12588 1
   13113    12587    12591 1
   13114    12588    12589 1
   13115    12589    12590 1
   13116    12590    12596 1
   13117    12591    12592 1
   13118    12591    12595 1
   13119    12592    12593 1
   13120    12593    12594 1
   13121    12593    12597 1
   13122    12594    12595 1
   13123    12594    12606 1
   13124    12598    12599 1
   13125    12598    12606 1
   13126    12599    12600 1
   13127    12599    12607 1
   13128    12600    12601 1
   13129    12600    12710 1
   13130    12601    12602 1
   13131    12601    12605 1
   13132    12602    12603 1
   13133    12603    12604 1
   13134    12604    12605 1
   13135    12605    12606 1
   13136    12608    12609 1
   13137    12608    12624 1
   13138    12608    12625 1
   13139    12609    12610 1
   13140    12609    12626 1
   13141    12609    12627 1
   13142    12610    12611 1
   13143    12610    12628 1
   13144    12610    12629 1
   13145    12611    12612 1
   13146    12611    12630 1
   13147    12611    12631 1
   13148    12612    12613 1
   13149    12612    12632 1
   13150    12612    12633 1
   13151    12613    12614 1
   13152    12613    12634 1
   13153    12613    12635 1
   13154    12614    12615 1
   13155    12614    12636 1
   13156    12614    12637 1
   13157    12615    12616 1
   13158    12615    12638 1
   13159    12615    12639 1
   13160    12616    12617 1
   13161    12616    12640 1
   13162    12616    12641 1
   13163    12617    12618 1
   13164    12617    12642 1
   13165    12617    12643 1
   13166    12618    12619 1
   13167    12618    12644 1
   13168    12618    12645 1
   13169    12619    12620 1
   13170    12619    12646 1
   13171    12619    12647 1
   13172    12620    12621 1
   13173    12620    12648 1
   13174    12620    12649 1
   13175    12621    12622 1
   13176    12621    12650 1
   13177    12621    12651 1
   13178    12622    12623 1
   13179    12622    12652 1
   13180    12622    12653 1
   13181    12623    12654 1
   13182    12623    12655 1
   13183    12623    12656 1
   13184    12657    12658 1
   13185    12657    12673 1
   13186    12657    12674 1
   13187    12658    12659 1
   13188    12658    12675 1
   13189    12658    12676 1
   13190    12659    12660 1
   13191    12659    12677 1
   13192    12659    12678 1
   13193    12660    12661 1
   13194    12660    12679 1
   13195    12660    12680 1
   13196    12661    12662 1
   13197    12661    12681 1
   13198    12661    12682 1
   13199    12662    12663 1
   13200    12662    12683 1
   13201    12662    12684 1
   13202    12663    12664 1
   13203    12663    12685 1
   13204    12663    12686 1
   13205    12664    12665 1
   13206    12664    12687 1
   13207    12664    12688 1
   13208    12665    12666 1
   13209    12665    12689 1
   13210    12665    12690 1
   13211    12666    12667 1
   13212    12666    12691 1
   13213    12666    12692 1
   13214    12667    12668 1
   13215    12667    12693 1
   13216    12667    12694 1
   13217    12668    12669 1
   13218    12668    12695 1
   13219    12668    12696 1
   13220    12669    12670 1
   13221    12669    12697 1
   13222    12669    12698 1
   13223    12670    12671 1
   13224    12670    12699 1
   13225    12670    12700 1
   13226    12671    12672 1
   13227    12671    12701 1
   13228    12671    12702 1
   13229    12672    12703 1
   13230    12672    12704 1
   13231    12672    12705 1
   13232    12706    12707 1
   13233    12706    12713 1
   13234    12706    12729 1
   13235    12706    12778 1
   13236    12707    12708 1
   13237    12707    12711 1
   13238    12708    12709 1
   13239    12708    12712 1
   13240    12709    12710 1
   13241    12710    12711 1
   13242    12711    12717 1
   13243    12712    12713 1
   13244    12712    12716 1
   13245    12713    12714 1
   13246    12714    12715 1
   13247    12714    12718 1
   13248    12715    12716 1
   13249    12715    12727 1
   13250    12719    12720 1
   13251    12719    12727 1
   13252    12720    12721 1
   13253    12720    12728 1
   13254    12721    12722 1
   13255    12721    12831 1
   13256    12722    12723 1
   13257    12722    12726 1
   13258    12723    12724 1
   13259    12724    12725 1
   13260    12725    12726 1
   13261    12726    12727 1
   13262    12729    12730 1
   13263    12729    12745 1
   13264    12729    12746 1
   13265    12730    12731 1
   13266    12730    12747 1
   13267    12730    12748 1
   13268    12731    12732 1
   13269    12731    12749 1
   13270    12731    12750 1
   13271    12732    12733 1
   13272    12732    12751 1
   13273    12732    12752 1
   13274    12733    12734 1
   13275    12733    12753 1
   13276    12733    12754 1
   13277    12734    12735 1
   13278    12734    12755 1
   13279    12734    12756 1
   13280    12735    12736 1
   13281    12735    12757 1
   13282    12735    12758 1
   13283    12736    12737 1
   13284    12736    12759 1
   13285    12736    12760 1
   13286    12737    12738 1
   13287    12737    12761 1
   13288    12737    12762 1
   13289    12738    12739 1
   13290    12738    12763 1
   13291    12738    12764 1
   13292    12739    12740 1
   13293    12739    12765 1
   13294    12739    12766 1
   13295    12740    12741 1
   13296    12740    12767 1
   13297    12740    12768 1
   13298    12741    12742 1
   13299    12741    12769 1
   13300    12741    12770 1
   13301    12742    12743 1
   13302    12742    12771 1
   13303    12742    12772 1
   13304    12743    12744 1
   13305    12743    12773 1
   13306    12743    12774 1
   13307    12744    12775 1
   13308    12744    12776 1
   13309    12744    12777 1
   13310    12778    12779 1
   13311    12778    12794 1
   13312    12778    12795 1
   13313    12779    12780 1
   13314    12779    12796 1
   13315    12779    12797 1
   13316    12780    12781 1
   13317    12780    12798 1
   13318    12780    12799 1
   13319    12781    12782 1
   13320    12781    12800 1
   13321    12781    12801 1
   13322    12782    12783 1
   13323    12782    12802 1
   13324    12782    12803 1
   13325    12783    12784 1
   13326    12783    12804 1
   13327    12783    12805 1
   13328    12784    12785 1
   13329    12784    12806 1
   13330    12784    12807 1
   13331    12785    12786 1
   13332    12785    12808 1
   13333    12785    12809 1
   13334    12786    12787 1
   13335    12786    12810 1
   13336    12786    12811 1
   13337    12787    12788 1
   13338    12787    12812 1
   13339    12787    12813 1
   13340    12788    12789 1
   13341    12788    12814 1
   13342    12788    12815 1
   13343    12789    12790 1
   13344    12789    12816 1
   13345    12789    12817 1
   13346    12790    12791 1
   13347    12790    12818 1
   13348    12790    12819 1
   13349    12791    12792 1
   13350    12791    12820 1
   13351    12791    12821 1
   13352    12792    12793 1
   13353    12792    12822 1
   13354    12792    12823 1
   13355    12793    12824 1
   13356    12793    12825 1
   13357    12793    12826 1
   13358    12827    12828 1
   13359    12827    12834 1
   13360    12827    12850 1
   13361    12827    12899 1
   13362    12828    12829 1
   13363    12828    12832 1
   13364    12829    12830 1
   13365    12829    12833 1
   13366    12830    12831 1
   13367    12831    12832 1
   13368    12832    12838 1
   13369    12833    12834 1
   13370    12833    12837 1
   13371    12834    12835 1
   13372    12835    12836 1
   13373    12835    12839 1
   13374    12836    12837 1
   13375    12836    12848 1
   13376    12840    12841 1
   13377    12840    12848 1
   13378    12841    12842 1
   13379    12841    12849 1
   13380    12842    12843 1
   13381    12842    12952 1
   13382    12843    12844 1
   13383    12843    12847 1
   13384    12844    12845 1
   13385    12845    12846 1
   13386    12846    12847 1
   13387    12847    12848 1
   13388    12850    12851 1
   13389    12850    12866 1
   13390    12850    12867 1
   13391    12851    12852 1
   13392    12851    12868 1
   13393    12851    12869 1
   13394    12852    12853 1
   13395    12852    12870 1
   13396    12852    12871 1
   13397    12853    12854 1
   13398    12853    12872 1
   13399    12853    12873 1
   13400    12854    12855 1
   13401    12854    12874 1
   13402    12854    12875 1
   13403    12855    12856 1
   13404    12855    12876 1
   13405    12855    12877 1
   13406    12856    12857 1
   13407    12856    12878 1
   13408    12856    12879 1
   13409    12857    12858 1
   13410    12857    12880 1
   13411    12857    12881 1
   13412    12858    12859 1
   13413    12858    12882 1
   13414    12858    12883 1
   13415    12859    12860 1
   13416    12859    12884 1
   13417    12859    12885 1
   13418    12860    12861 1
   13419    12860    12886 1
   13420    12860    12887 1
   13421    12861    12862 1
   13422    12861    12888 1
   13423    12861    12889 1
   13424    12862    12863 1
   13425    12862    12890 1
   13426    12862    12891 1
   13427    12863    12864 1
   13428    12863    12892 1
   13429    12863    12893 1
   13430    12864    12865 1
   13431    12864    12894 1
   13432    12864    12895 1
   13433    12865    12896 1
   13434    12865    12897 1
   13435    12865    12898 1
   13436    12899    12900 1
   13437    12899    12915 1
   13438    12899    12916 1
   13439    12900    12901 1
   13440    12900    12917 1
   13441    12900    12918 1
   13442    12901    12902 1
   13443    12901    12919 1
   13444    12901    12920 1
   13445    12902    12903 1
   13446    12902    12921 1
   13447    12902    12922 1
   13448    12903    12904 1
   13449    12903    12923 1
   13450    12903    12924 1
   13451    12904    12905 1
   13452    12904    12925 1
   13453    12904    12926 1
   13454    12905    12906 1
   13455    12905    12927 1
   13456    12905    12928 1
   13457    12906    12907 1
   13458    12906    12929 1
   13459    12906    12930 1
   13460    12907    12908 1
   13461    12907    12931 1
   13462    12907    12932 1
   13463    12908    12909 1
   13464    12908    12933 1
   13465    12908    12934 1
   13466    12909    12910 1
   13467    12909    12935 1
   13468    12909    12936 1
   13469    12910    12911 1
   13470    12910    12937 1
   13471    12910    12938 1
   13472    12911    12912 1
   13473    12911    12939 1
   13474    12911    12940 1
   13475    12912    12913 1
   13476    12912    12941 1
   13477    12912    12942 1
   13478    12913    12914 1
   13479    12913    12943 1
   13480    12913    12944 1
   13481    12914    12945 1
   13482    12914    12946 1
   13483    12914    12947 1
   13484    12948    12949 1
   13485    12948    12955 1
   13486    12948    12971 1
   13487    12948    13020 1
   13488    12949    12950 1
   13489    12949    12953 1
   13490    12950    12951 1
   13491    12950    12954 1
   13492    12951    12952 1
   13493    12952    12953 1
   13494    12953    12959 1
   13495    12954    12955 1
   13496    12954    12958 1
   13497    12955    12956 1
   13498    12956    12957 1
   13499    12956    12960 1
   13500    12957    12958 1
   13501    12957    12969 1
   13502    12961    12962 1
   13503    12961    12969 1
   13504    12962    12963 1
   13505    12962    12970 1
   13506    12963    12964 1
   13507    12963    13073 1
   13508    12964    12965 1
   13509    12964    12968 1
   13510    12965    12966 1
   13511    12966    12967 1
   13512    12967    12968 1
   13513    12968    12969 1
   13514    12971    12972 1
   13515    12971    12987 1
   13516    12971    12988 1
   13517    12972    12973 1
   13518    12972    12989 1
   13519    12972    12990 1
   13520    12973    12974 1
   13521    12973    12991 1
   13522    12973    12992 1
   13523    12974    12975 1
   13524    12974    12993 1
   13525    12974    12994 1
   13526    12975    12976 1
   13527    12975    12995 1
   13528    12975    12996 1
   13529    12976    12977 1
   13530    12976    12997 1
   13531    12976    12998 1
   13532    12977    12978 1
   13533    12977    12999 1
   13534    12977    13000 1
   13535    12978    12979 1
   13536    12978    13001 1
   13537    12978    13002 1
   13538    12979    12980 1
   13539    12979    13003 1
   13540    12979    13004 1
   13541    12980    12981 1
   13542    12980    13005 1
   13543    12980    13006 1
   13544    12981    12982 1
   13545    12981    13007 1
   13546    12981    13008 1
   13547    12982    12983 1
   13548    12982    13009 1
   13549    12982    13010 1
   13550    12983    12984 1
   13551    12983    13011 1
   13552    12983    13012 1
   13553    12984    12985 1
   13554    12984    13013 1
   13555    12984    13014 1
   13556    12985    12986 1
   13557    12985    13015 1
   13558    12985    13016 1
   13559    12986    13017 1
   13560    12986    13018 1
   13561    12986    13019 1
   13562    13020    13021 1
   13563    13020    13036 1
   13564    13020    13037 1
   13565    13021    13022 1
   13566    13021    13038 1
   13567    13021    13039 1
   13568    13022    13023 1
   13569    13022    13040 1
   13570    13022    13041 1
   13571    13023    13024 1
   13572    13023    13042 1
   13573    13023    13043 1
   13574    13024    13025 1
   13575    13024    13044 1
   13576    13024    13045 1
   13577    13025    13026 1
   13578    13025    13046 1
   13579    13025    13047 1
   13580    13026    13027 1
   13581    13026    13048 1
   13582    13026    13049 1
   13583    13027    13028 1
   13584    13027    13050 1
   13585    13027    13051 1
   13586    13028    13029 1
   13587    13028    13052 1
   13588    13028    13053 1
   13589    13029    13030 1
   13590    13029    13054 1
   13591    13029    13055 1
   13592    13030    13031 1
   13593    13030    13056 1
   13594    13030    13057 1
   13595    13031    13032 1
   13596    13031    13058 1
   13597    13031    13059 1
   13598    13032    13033 1
   13599    13032    13060 1
   13600    13032    13061 1
   13601    13033    13034 1
   13602    13033    13062 1
   13603    13033    13063 1
   13604    13034    13035 1
   13605    13034    13064 1
   13606    13034    13065 1
   13607    13035    13066 1
   13608    13035    13067 1
   13609    13035    13068 1
   13610    13069    13070 1
   13611    13069    13076 1
   13612    13069    13092 1
   13613    13069    13141 1
   13614    13070    13071 1
   13615    13070    13074 1
   13616    13071    13072 1
   13617    13071    13075 1
   13618    13072    13073 1
   13619    13073    13074 1
   13620    13074    13080 1
   13621    13075    13076 1
   13622    13075    13079 1
   13623    13076    13077 1
   13624    13077    13078 1
   13625    13077    13081 1
   13626    13078    13079 1
   13627    13078    13090 1
   13628    13082    13083 1
   13629    13082    13090 1
   13630    13083    13084 1
   13631    13083    13091 1
   13632    13084    13085 1
   13633    13084    13194 1
   13634    13085    13086 1
   13635    13085    13089 1
   13636    13086    13087 1
   13637    13087    13088 1
   13638    13088    13089 1
   13639    13089    13090 1
   13640    13092    13093 1
   13641    13092    13108 1
   13642    13092    13109 1
   13643    13093    13094 1
   13644    13093    13110 1
   13645    13093    13111 1
   13646    13094    13095 1
   13647    13094    13112 1
   13648    13094    13113 1
   13649    13095    13096 1
   13650    13095    13114 1
   13651    13095    13115 1
   13652    13096    13097 1
   13653    13096    13116 1
   13654    13096    13117 1
   13655    13097    13098 1
   13656    13097    13118 1
   13657    13097    13119 1
   13658    13098    13099 1
   13659    13098    13120 1
   13660    13098    13121 1
   13661    13099    13100 1
   13662    13099    13122 1
   13663    13099    13123 1
   13664    13100    13101 1
   13665    13100    13124 1
   13666    13100    13125 1
   13667    13101    13102 1
   13668    13101    13126 1
   13669    13101    13127 1
   13670    13102    13103 1
   13671    13102    13128 1
   13672    13102    13129 1
   13673    13103    13104 1
   13674    13103    13130 1
   13675    13103    13131 1
   13676    13104    13105 1
   13677    13104    13132 1
   13678    13104    13133 1
   13679    13105    13106 1
   13680    13105    13134 1
   13681    13105    13135 1
   13682    13106    13107 1
   13683    13106    13136 1
   13684    13106    13137 1
   13685    13107    13138 1
   13686    13107    13139 1
   13687    13107    13140 1
   13688    13141    13142 1
   13689    13141    13157 1
   13690    13141    13158 1
   13691    13142    13143 1
   13692    13142    13159 1
   13693    13142    13160 1
   13694    13143    13144 1
   13695    13143    13161 1
   13696    13143    13162 1
   13697    13144    13145 1
   13698    13144    13163 1
   13699    13144    13164 1
   13700    13145    13146 1
   13701    13145    13165 1
   13702    13145    13166 1
   13703    13146    13147 1
   13704    13146    13167 1
   13705    13146    13168 1
   13706    13147    13148 1
   13707    13147    13169 1
   13708    13147    13170 1
   13709    13148    13149 1
   13710    13148    13171 1
   13711    13148    13172 1
   13712    13149    13150 1
   13713    13149    13173 1
   13714    13149    13174 1
   13715    13150    13151 1
   13716    13150    13175 1
   13717    13150    13176 1
   13718    13151    13152 1
   13719    13151    13177 1
   13720    13151    13178 1
   13721    13152    13153 1
   13722    13152    13179 1
   13723    13152    13180 1
   13724    13153    13154 1
   13725    13153    13181 1
   13726    13153    13182 1
   13727    13154    13155 1
   13728    13154    13183 1
   13729    13154    13184 1
   13730    13155    13156 1
   13731    13155    13185 1
   13732    13155    13186 1
   13733    13156    13187 1
   13734    13156    13188 1
   13735    13156    13189 1
   13736    13190    13191 1
   13737    13190    13197 1
   13738    13190    13213 1
   13739    13190    13262 1
   13740    13191    13192 1
   13741    13191    13195 1
   13742    13192    13193 1
   13743    13192    13196 1
   13744    13193    13194 1
   13745    13194    13195 1
   13746    13195    13201 1
   13747    13196    13197 1
   13748    13196    13200 1
   13749    13197    13198 1
   13750    13198    13199 1
   13751    13198    13202 1
   13752    13199    13200 1
   13753    13199    13211 1
   13754    13203    13204 1
   13755    13203    13211 1
   13756    13204    13205 1
   13757    13204    13212 1
   13758    13205    13206 1
   13759    13205    13315 1
   13760    13206    13207 1
   13761    13206    13210 1
   13762    13207    13208 1
   13763    13208    13209 1
   13764    13209    13210 1
   13765    13210    13211 1
   13766    13213    13214 1
   13767    13213    13229 1
   13768    13213    13230 1
   13769    13214    13215 1
   13770    13214    13231 1
   13771    13214    13232 1
   13772    13215    13216 1
   13773    13215    13233 1
   13774    13215    13234 1
   13775    13216    13217 1
   13776    13216    13235 1
   13777    13216    13236 1
   13778    13217    13218 1
   13779    13217    13237 1
   13780    13217    13238 1
   13781    13218    13219 1
   13782    13218    13239 1
   13783    13218    13240 1
   13784    13219    13220 1
   13785    13219    13241 1
   13786    13219    13242 1
   13787    13220    13221 1
   13788    13220    13243 1
   13789    13220    13244 1
   13790    13221    13222 1
   13791    13221    13245 1
   13792    13221    13246 1
   13793    13222    13223 1
   13794    13222    13247 1
   13795    13222    13248 1
   13796    13223    13224 1
   13797    13223    13249 1
   13798    13223    13250 1
   13799    13224    13225 1
   13800    13224    13251 1
   13801    13224    13252 1
   13802    13225    13226 1
   13803    13225    13253 1
   13804    13225    13254 1
   13805    13226    13227 1
   13806    13226    13255 1
   13807    13226    13256 1
   13808    13227    13228 1
   13809    13227    13257 1
   13810    13227    13258 1
   13811    13228    13259 1
   13812    13228    13260 1
   13813    13228    13261 1
   13814    13262    13263 1
   13815    13262    13278 1
   13816    13262    13279 1
   13817    13263    13264 1
   13818    13263    13280 1
   13819    13263    13281 1
   13820    13264    13265 1
   13821    13264    13282 1
   13822    13264    13283 1
   13823    13265    13266 1
   13824    13265    13284 1
   13825    13265    13285 1
   13826    13266    13267 1
   13827    13266    13286 1
   13828    13266    13287 1
   13829    13267    13268 1
   13830    13267    13288 1
   13831    13267    13289 1
   13832    13268    13269 1
   13833    13268    13290 1
   13834    13268    13291 1
   13835    13269    13270 1
   13836    13269    13292 1
   13837    13269    13293 1
   13838    13270    13271 1
   13839    13270    13294 1
   13840    13270    13295 1
   13841    13271    13272 1
   13842    13271    13296 1
   13843    13271    13297 1
   13844    13272    13273 1
   13845    13272    13298 1
   13846    13272    13299 1
   13847    13273    13274 1
   13848    13273    13300 1
   13849    13273    13301 1
   13850    13274    13275 1
   13851    13274    13302 1
   13852    13274    13303 1
   13853    13275    13276 1
   13854    13275    13304 1
   13855    13275    13305 1
   13856    13276    13277 1
   13857    13276    13306 1
   13858    13276    13307 1
   13859    13277    13308 1
   13860    13277    13309 1
   13861    13277    13310 1
   13862    13311    13312 1
   13863    13311    13318 1
   13864    13311    13334 1
   13865    13311    13383 1
   13866    13312    13313 1
   13867    13312    13316 1
   13868    13313    13314 1
   13869    13313    13317 1
   13870    13314    13315 1
   13871    13315    13316 1
   13872    13316    13322 1
   13873    13317    13318 1
   13874    13317    13321 1
   13875    13318    13319 1
   13876    13319    13320 1
   13877    13319    13323 1
   13878    13320    13321 1
   13879    13320    13332 1
   13880    13324    13325 1
   13881    13324    13332 1
   13882    13325    13326 1
   13883    13325    13333 1
   13884    13326    13327 1
   13885    13326    13436 1
   13886    13327    13328 1
   13887    13327    13331 1
   13888    13328    13329 1
   13889    13329    13330 1
   13890    13330    13331 1
   13891    13331    13332 1
   13892    13334    13335 1
   13893    13334    13350 1
   13894    13334    13351 1
   13895    13335    13336 1
   13896    13335    13352 1
   13897    13335    13353 1
   13898    13336    13337 1
   13899    13336    13354 1
   13900    13336    13355 1
   13901    13337    13338 1
   13902    13337    13356 1
   13903    13337    13357 1
   13904    13338    13339 1
   13905    13338    13358 1
   13906    13338    13359 1
   13907    13339    13340 1
   13908    13339    13360 1
   13909    13339    13361 1
   13910    13340    13341 1
   13911    13340    13362 1
   13912    13340    13363 1
   13913    13341    13342 1
   13914    13341    13364 1
   13915    13341    13365 1
   13916    13342    13343 1
   13917    13342    13366 1
   13918    13342    13367 1
   13919    13343    13344 1
   13920    13343    13368 1
   13921    13343    13369 1
   13922    13344    13345 1
   13923    13344    13370 1
   13924    13344    13371 1
   13925    13345    13346 1
   13926    13345    13372 1
   13927    13345    13373 1
   13928    13346    13347 1
   13929    13346    13374 1
   13930    13346    13375 1
   13931    13347    13348 1
   13932    13347    13376 1
   13933    13347    13377 1
   13934    13348    13349 1
   13935    13348    13378 1
   13936    13348    13379 1
   13937    13349    13380 1
   13938    13349    13381 1
   13939    13349    13382 1
   13940    13383    13384 1
   13941    13383    13399 1
   13942    13383    13400 1
   13943    13384    13385 1
   13944    13384    13401 1
   13945    13384    13402 1
   13946    13385    13386 1
   13947    13385    13403 1
   13948    13385    13404 1
   13949    13386    13387 1
   13950    13386    13405 1
   13951    13386    13406 1
   13952    13387    13388 1
   13953    13387    13407 1
   13954    13387    13408 1
   13955    13388    13389 1
   13956    13388    13409 1
   13957    13388    13410 1
   13958    13389    13390 1
   13959    13389    13411 1
   13960    13389    13412 1
   13961    13390    13391 1
   13962    13390    13413 1
   13963    13390    13414 1
   13964    13391    13392 1
   13965    13391    13415 1
   13966    13391    13416 1
   13967    13392    13393 1
   13968    13392    13417 1
   13969    13392    13418 1
   13970    13393    13394 1
   13971    13393    13419 1
   13972    13393    13420 1
   13973    13394    13395 1
   13974    13394    13421 1
   13975    13394    13422 1
   13976    13395    13396 1
   13977    13395    13423 1
   13978    13395    13424 1
   13979    13396    13397 1
   13980    13396    13425 1
   13981    13396    13426 1
   13982    13397    13398 1
   13983    13397    13427 1
   13984    13397    13428 1
   13985    13398    13429 1
   13986    13398    13430 1
   13987    13398    13431 1
   13988    13432    13433 1
   13989    13432    13439 1
   13990    13432    13455 1
   13991    13432    13504 1
   13992    13433    13434 1
   13993    13433    13437 1
   13994    13434    13435 1
   13995    13434    13438 1
   13996    13435    13436 1
   13997    13436    13437 1
   13998    13437    13443 1
   13999    13438    13439 1
   14000    13438    13442 1
   14001    13439    13440 1
   14002    13440    13441 1
   14003    13440    13444 1
   14004    13441    13442 1
   14005    13441    13453 1
   14006    13445    13446 1
   14007    13445    13453 1
   14008    13446    13447 1
   14009    13446    13454 1
   14010    13447    13448 1
   14011    13447    13557 1
   14012    13448    13449 1
   14013    13448    13452 1
   14014    13449    13450 1
   14015    13450    13451 1
   14016    13451    13452 1
   14017    13452    13453 1
   14018    13455    13456 1
   14019    13455    13471 1
   14020    13455    13472 1
   14021    13456    13457 1
   14022    13456    13473 1
   14023    13456    13474 1
   14024    13457    13458 1
   14025    13457    13475 1
   14026    13457    13476 1
   14027    13458    13459 1
   14028    13458    13477 1
   14029    13458    13478 1
   14030    13459    13460 1
   14031    13459    13479 1
   14032    13459    13480 1
   14033    13460    13461 1
   14034    13460    13481 1
   14035    13460    13482 1
   14036    13461    13462 1
   14037    13461    13483 1
   14038    13461    13484 1
   14039    13462    13463 1
   14040    13462    13485 1
   14041    13462    13486 1
   14042    13463    13464 1
   14043    13463    13487 1
   14044    13463    13488 1
   14045    13464    13465 1
   14046    13464    13489 1
   14047    13464    13490 1
   14048    13465    13466 1
   14049    13465    13491 1
   14050    13465    13492 1
   14051    13466    13467 1
   14052    13466    13493 1
   14053    13466    13494 1
   14054    13467    13468 1
   14055    13467    13495 1
   14056    13467    13496 1
   14057    13468    13469 1
   14058    13468    13497 1
   14059    13468    13498 1
   14060    13469    13470 1
   14061    13469    13499 1
   14062    13469    13500 1
   14063    13470    13501 1
   14064    13470    13502 1
   14065    13470    13503 1
   14066    13504    13505 1
   14067    13504    13520 1
   14068    13504    13521 1
   14069    13505    13506 1
   14070    13505    13522 1
   14071    13505    13523 1
   14072    13506    13507 1
   14073    13506    13524 1
   14074    13506    13525 1
   14075    13507    13508 1
   14076    13507    13526 1
   14077    13507    13527 1
   14078    13508    13509 1
   14079    13508    13528 1
   14080    13508    13529 1
   14081    13509    13510 1
   14082    13509    13530 1
   14083    13509    13531 1
   14084    13510    13511 1
   14085    13510    13532 1
   14086    13510    13533 1
   14087    13511    13512 1
   14088    13511    13534 1
   14089    13511    13535 1
   14090    13512    13513 1
   14091    13512    13536 1
   14092    13512    13537 1
   14093    13513    13514 1
   14094    13513    13538 1
   14095    13513    13539 1
   14096    13514    13515 1
   14097    13514    13540 1
   14098    13514    13541 1
   14099    13515    13516 1
   14100    13515    13542 1
   14101    13515    13543 1
   14102    13516    13517 1
   14103    13516    13544 1
   14104    13516    13545 1
   14105    13517    13518 1
   14106    13517    13546 1
   14107    13517    13547 1
   14108    13518    13519 1
   14109    13518    13548 1
   14110    13518    13549 1
   14111    13519    13550 1
   14112    13519    13551 1
   14113    13519    13552 1
   14114    13553    13554 1
   14115    13553    13560 1
   14116    13553    13576 1
   14117    13553    13625 1
   14118    13554    13555 1
   14119    13554    13558 1
   14120    13555    13556 1
   14121    13555    13559 1
   14122    13556    13557 1
   14123    13557    13558 1
   14124    13558    13564 1
   14125    13559    13560 1
   14126    13559    13563 1
   14127    13560    13561 1
   14128    13561    13562 1
   14129    13561    13565 1
   14130    13562    13563 1
   14131    13562    13574 1
   14132    13566    13567 1
   14133    13566    13574 1
   14134    13567    13568 1
   14135    13567    13575 1
   14136    13568    13569 1
   14137    13568    13678 1
   14138    13569    13570 1
   14139    13569    13573 1
   14140    13570    13571 1
   14141    13571    13572 1
   14142    13572    13573 1
   14143    13573    13574 1
   14144    13576    13577 1
   14145    13576    13592 1
   14146    13576    13593 1
   14147    13577    13578 1
   14148    13577    13594 1
   14149    13577    13595 1
   14150    13578    13579 1
   14151    13578    13596 1
   14152    13578    13597 1
   14153    13579    13580 1
   14154    13579    13598 1
   14155    13579    13599 1
   14156    13580    13581 1
   14157    13580    13600 1
   14158    13580    13601 1
   14159    13581    13582 1
   14160    13581    13602 1
   14161    13581    13603 1
   14162    13582    13583 1
   14163    13582    13604 1
   14164    13582    13605 1
   14165    13583    13584 1
   14166    13583    13606 1
   14167    13583    13607 1
   14168    13584    13585 1
   14169    13584    13608 1
   14170    13584    13609 1
   14171    13585    13586 1
   14172    13585    13610 1
   14173    13585    13611 1
   14174    13586    13587 1
   14175    13586    13612 1
   14176    13586    13613 1
   14177    13587    13588 1
   14178    13587    13614 1
   14179    13587    13615 1
   14180    13588    13589 1
   14181    13588    13616 1
   14182    13588    13617 1
   14183    13589    13590 1
   14184    13589    13618 1
   14185    13589    13619 1
   14186    13590    13591 1
   14187    13590    13620 1
   14188    13590    13621 1
   14189    13591    13622 1
   14190    13591    13623 1
   14191    13591    13624 1
   14192    13625    13626 1
   14193    13625    13641 1
   14194    13625    13642 1
   14195    13626    13627 1
   14196    13626    13643 1
   14197    13626    13644 1
   14198    13627    13628 1
   14199    13627    13645 1
   14200    13627    13646 1
   14201    13628    13629 1
   14202    13628    13647 1
   14203    13628    13648 1
   14204    13629    13630 1
   14205    13629    13649 1
   14206    13629    13650 1
   14207    13630    13631 1
   14208    13630    13651 1
   14209    13630    13652 1
   14210    13631    13632 1
   14211    13631    13653 1
   14212    13631    13654 1
   14213    13632    13633 1
   14214    13632    13655 1
   14215    13632    13656 1
   14216    13633    13634 1
   14217    13633    13657 1
   14218    13633    13658 1
   14219    13634    13635 1
   14220    13634    13659 1
   14221    13634    13660 1
   14222    13635    13636 1
   14223    13635    13661 1
   14224    13635    13662 1
   14225    13636    13637 1
   14226    13636    13663 1
   14227    13636    13664 1
   14228    13637    13638 1
   14229    13637    13665 1
   14230    13637    13666 1
   14231    13638    13639 1
   14232    13638    13667 1
   14233    13638    13668 1
   14234    13639    13640 1
   14235    13639    13669 1
   14236    13639    13670 1
   14237    13640    13671 1
   14238    13640    13672 1
   14239    13640    13673 1
   14240    13674    13675 1
   14241    13674    13681 1
   14242    13674    13697 1
   14243    13674    13746 1
   14244    13675    13676 1
   14245    13675    13679 1
   14246    13676    13677 1
   14247    13676    13680 1
   14248    13677    13678 1
   14249    13678    13679 1
   14250    13679    13685 1
   14251    13680    13681 1
   14252    13680    13684 1
   14253    13681    13682 1
   14254    13682    13683 1
   14255    13682    13686 1
   14256    13683    13684 1
   14257    13683    13695 1
   14258    13687    13688 1
   14259    13687    13695 1
   14260    13688    13689 1
   14261    13688    13696 1
   14262    13689    13690 1
   14263    13689    13799 1
   14264    13690    13691 1
   14265    13690    13694 1
   14266    13691    13692 1
   14267    13692    13693 1
   14268    13693    13694 1
   14269    13694    13695 1
   14270    13697    13698 1
   14271    13697    13713 1
   14272    13697    13714 1
   14273    13698    13699 1
   14274    13698    13715 1
   14275    13698    13716 1
   14276    13699    13700 1
   14277    13699    13717 1
   14278    13699    13718 1
   14279    13700    13701 1
   14280    13700    13719 1
   14281    13700    13720 1
   14282    13701    13702 1
   14283    13701    13721 1
   14284    13701    13722 1
   14285    13702    13703 1
   14286    13702    13723 1
   14287    13702    13724 1
   14288    13703    13704 1
   14289    13703    13725 1
   14290    13703    13726 1
   14291    13704    13705 1
   14292    13704    13727 1
   14293    13704    13728 1
   14294    13705    13706 1
   14295    13705    13729 1
   14296    13705    13730 1
   14297    13706    13707 1
   14298    13706    13731 1
   14299    13706    13732 1
   14300    13707    13708 1
   14301    13707    13733 1
   14302    13707    13734 1
   14303    13708    13709 1
   14304    13708    13735 1
   14305    13708    13736 1
   14306    13709    13710 1
   14307    13709    13737 1
   14308    13709    13738 1
   14309    13710    13711 1
   14310    13710    13739 1
   14311    13710    13740 1
   14312    13711    13712 1
   14313    13711    13741 1
   14314    13711    13742 1
   14315    13712    13743 1
   14316    13712    13744 1
   14317    13712    13745 1
   14318    13746    13747 1
   14319    13746    13762 1
   14320    13746    13763 1
   14321    13747    13748 1
   14322    13747    13764 1
   14323    13747    13765 1
   14324    13748    13749 1
   14325    13748    13766 1
   14326    13748    13767 1
   14327    13749    13750 1
   14328    13749    13768 1
   14329    13749    13769 1
   14330    13750    13751 1
   14331    13750    13770 1
   14332    13750    13771 1
   14333    13751    13752 1
   14334    13751    13772 1
   14335    13751    13773 1
   14336    13752    13753 1
   14337    13752    13774 1
   14338    13752    13775 1
   14339    13753    13754 1
   14340    13753    13776 1
   14341    13753    13777 1
   14342    13754    13755 1
   14343    13754    13778 1
   14344    13754    13779 1
   14345    13755    13756 1
   14346    13755    13780 1
   14347    13755    13781 1
   14348    13756    13757 1
   14349    13756    13782 1
   14350    13756    13783 1
   14351    13757    13758 1
   14352    13757    13784 1
   14353    13757    13785 1
   14354    13758    13759 1
   14355    13758    13786 1
   14356    13758    13787 1
   14357    13759    13760 1
   14358    13759    13788 1
   14359    13759    13789 1
   14360    13760    13761 1
   14361    13760    13790 1
   14362    13760    13791 1
   14363    13761    13792 1
   14364    13761    13793 1
   14365    13761    13794 1
   14366    13795    13796 1
   14367    13795    13802 1
   14368    13795    13818 1
   14369    13795    13867 1
   14370    13796    13797 1
   14371    13796    13800 1
   14372    13797    13798 1
   14373    13797    13801 1
   14374    13798    13799 1
   14375    13799    13800 1
   14376    13800    13806 1
   14377    13801    13802 1
   14378    13801    13805 1
   14379    13802    13803 1
   14380    13803    13804 1
   14381    13803    13807 1
   14382    13804    13805 1
   14383    13804    13816 1
   14384    13808    13809 1
   14385    13808    13816 1
   14386    13809    13810 1
   14387    13809    13817 1
   14388    13810    13811 1
   14389    13810    13920 1
   14390    13811    13812 1
   14391    13811    13815 1
   14392    13812    13813 1
   14393    13813    13814 1
   14394    13814    13815 1
   14395    13815    13816 1
   14396    13818    13819 1
   14397    13818    13834 1
   14398    13818    13835 1
   14399    13819    13820 1
   14400    13819    13836 1
   14401    13819    13837 1
   14402    13820    13821 1
   14403    13820    13838 1
   14404    13820    13839 1
   14405    13821    13822 1
   14406    13821    13840 1
   14407    13821    13841 1
   14408    13822    13823 1
   14409    13822    13842 1
   14410    13822    13843 1
   14411    13823    13824 1
   14412    13823    13844 1
   14413    13823    13845 1
   14414    13824    13825 1
   14415    13824    13846 1
   14416    13824    13847 1
   14417    13825    13826 1
   14418    13825    13848 1
   14419    13825    13849 1
   14420    13826    13827 1
   14421    13826    13850 1
   14422    13826    13851 1
   14423    13827    13828 1
   14424    13827    13852 1
   14425    13827    13853 1
   14426    13828    13829 1
   14427    13828    13854 1
   14428    13828    13855 1
   14429    13829    13830 1
   14430    13829    13856 1
   14431    13829    13857 1
   14432    13830    13831 1
   14433    13830    13858 1
   14434    13830    13859 1
   14435    13831    13832 1
   14436    13831    13860 1
   14437    13831    13861 1
   14438    13832    13833 1
   14439    13832    13862 1
   14440    13832    13863 1
   14441    13833    13864 1
   14442    13833    13865 1
   14443    13833    13866 1
   14444    13867    13868 1
   14445    13867    13883 1
   14446    13867    13884 1
   14447    13868    13869 1
   14448    13868    13885 1
   14449    13868    13886 1
   14450    13869    13870 1
   14451    13869    13887 1
   14452    13869    13888 1
   14453    13870    13871 1
   14454    13870    13889 1
   14455    13870    13890 1
   14456    13871    13872 1
   14457    13871    13891 1
   14458    13871    13892 1
   14459    13872    13873 1
   14460    13872    13893 1
   14461    13872    13894 1
   14462    13873    13874 1
   14463    13873    13895 1
   14464    13873    13896 1
   14465    13874    13875 1
   14466    13874    13897 1
   14467    13874    13898 1
   14468    13875    13876 1
   14469    13875    13899 1
   14470    13875    13900 1
   14471    13876    13877 1
   14472    13876    13901 1
   14473    13876    13902 1
   14474    13877    13878 1
   14475    13877    13903 1
   14476    13877    13904 1
   14477    13878    13879 1
   14478    13878    13905 1
   14479    13878    13906 1
   14480    13879    13880 1
   14481    13879    13907 1
   14482    13879    13908 1
   14483    13880    13881 1
   14484    13880    13909 1
   14485    13880    13910 1
   14486    13881    13882 1
   14487    13881    13911 1
   14488    13881    13912 1
   14489    13882    13913 1
   14490    13882    13914 1
   14491    13882    13915 1
   14492    13916    13917 1
   14493    13916    13923 1
   14494    13916    13939 1
   14495    13916    13988 1
   14496    13917    13918 1
   14497    13917    13921 1
   14498    13918    13919 1
   14499    13918    13922 1
   14500    13919    13920 1
   14501    13920    13921 1
   14502    13921    13927 1
   14503    13922    13923 1
   14504    13922    13926 1
   14505    13923    13924 1
   14506    13924    13925 1
   14507    13924    13928 1
   14508    13925    13926 1
   14509    13925    13937 1
   14510    13929    13930 1
   14511    13929    13937 1
   14512    13930    13931 1
   14513    13930    13938 1
   14514    13931    13932 1
   14515    13931    14041 1
   14516    13932    13933 1
   14517    13932    13936 1
   14518    13933    13934 1
   14519    13934    13935 1
   14520    13935    13936 1
   14521    13936    13937 1
   14522    13939    13940 1
   14523    13939    13955 1
   14524    13939    13956 1
   14525    13940    13941 1
   14526    13940    13957 1
   14527    13940    13958 1
   14528    13941    13942 1
   14529    13941    13959 1
   14530    13941    13960 1
   14531    13942    13943 1
   14532    13942    13961 1
   14533    13942    13962 1
   14534    13943    13944 1
   14535    13943    13963 1
   14536    13943    13964 1
   14537    13944    13945 1
   14538    13944    13965 1
   14539    13944    13966 1
   14540    13945    13946 1
   14541    13945    13967 1
   14542    13945    13968 1
   14543    13946    13947 1
   14544    13946    13969 1
   14545    13946    13970 1
   14546    13947    13948 1
   14547    13947    13971 1
   14548    13947    13972 1
   14549    13948    13949 1
   14550    13948    13973 1
   14551    13948    13974 1
   14552    13949    13950 1
   14553    13949    13975 1
   14554    13949    13976 1
   14555    13950    13951 1
   14556    13950    13977 1
   14557    13950    13978 1
   14558    13951    13952 1
   14559    13951    13979 1
   14560    13951    13980 1
   14561    13952    13953 1
   14562    13952    13981 1
   14563    13952    13982 1
   14564    13953    13954 1
   14565    13953    13983 1
   14566    13953    13984 1
   14567    13954    13985 1
   14568    13954    13986 1
   14569    13954    13987 1
   14570    13988    13989 1
   14571    13988    14004 1
   14572    13988    14005 1
   14573    13989    13990 1
   14574    13989    14006 1
   14575    13989    14007 1
   14576    13990    13991 1
   14577    13990    14008 1
   14578    13990    14009 1
   14579    13991    13992 1
   14580    13991    14010 1
   14581    13991    14011 1
   14582    13992    13993 1
   14583    13992    14012 1
   14584    13992    14013 1
   14585    13993    13994 1
   14586    13993    14014 1
   14587    13993    14015 1
   14588    13994    13995 1
   14589    13994    14016 1
   14590    13994    14017 1
   14591    13995    13996 1
   14592    13995    14018 1
   14593    13995    14019 1
   14594    13996    13997 1
   14595    13996    14020 1
   14596    13996    14021 1
   14597    13997    13998 1
   14598    13997    14022 1
   14599    13997    14023 1
   14600    13998    13999 1
   14601    13998    14024 1
   14602    13998    14025 1
   14603    13999    14000 1
   14604    13999    14026 1
   14605    13999    14027 1
   14606    14000    14001 1
   14607    14000    14028 1
   14608    14000    14029 1
   14609    14001    14002 1
   14610    14001    14030 1
   14611    14001    14031 1
   14612    14002    14003 1
   14613    14002    14032 1
   14614    14002    14033 1
   14615    14003    14034 1
   14616    14003    14035 1
   14617    14003    14036 1
   14618    14037    14038 1
   14619    14037    14044 1
   14620    14037    14060 1
   14621    14037    14109 1
   14622    14038    14039 1
   14623    14038    14042 1
   14624    14039    14040 1
   14625    14039    14043 1
   14626    14040    14041 1
   14627    14041    14042 1
   14628    14042    14048 1
   14629    14043    14044 1
   14630    14043    14047 1
   14631    14044    14045 1
   14632    14045    14046 1
   14633    14045    14049 1
   14634    14046    14047 1
   14635    14046    14058 1
   14636    14050    14051 1
   14637    14050    14058 1
   14638    14051    14052 1
   14639    14051    14059 1
   14640    14052    14053 1
   14641    14052    14162 1
   14642    14053    14054 1
   14643    14053    14057 1
   14644    14054    14055 1
   14645    14055    14056 1
   14646    14056    14057 1
   14647    14057    14058 1
   14648    14060    14061 1
   14649    14060    14076 1
   14650    14060    14077 1
   14651    14061    14062 1
   14652    14061    14078 1
   14653    14061    14079 1
   14654    14062    14063 1
   14655    14062    14080 1
   14656    14062    14081 1
   14657    14063    14064 1
   14658    14063    14082 1
   14659    14063    14083 1
   14660    14064    14065 1
   14661    14064    14084 1
   14662    14064    14085 1
   14663    14065    14066 1
   14664    14065    14086 1
   14665    14065    14087 1
   14666    14066    14067 1
   14667    14066    14088 1
   14668    14066    14089 1
   14669    14067    14068 1
   14670    14067    14090 1
   14671    14067    14091 1
   14672    14068    14069 1
   14673    14068    14092 1
   14674    14068    14093 1
   14675    14069    14070 1
   14676    14069    14094 1
   14677    14069    14095 1
   14678    14070    14071 1
   14679    14070    14096 1
   14680    14070    14097 1
   14681    14071    14072 1
   14682    14071    14098 1
   14683    14071    14099 1
   14684    14072    14073 1
   14685    14072    14100 1
   14686    14072    14101 1
   14687    14073    14074 1
   14688    14073    14102 1
   14689    14073    14103 1
   14690    14074    14075 1
   14691    14074    14104 1
   14692    14074    14105 1
   14693    14075    14106 1
   14694    14075    14107 1
   14695    14075    14108 1
   14696    14109    14110 1
   14697    14109    14125 1
   14698    14109    14126 1
   14699    14110    14111 1
   14700    14110    14127 1
   14701    14110    14128 1
   14702    14111    14112 1
   14703    14111    14129 1
   14704    14111    14130 1
   14705    14112    14113 1
   14706    14112    14131 1
   14707    14112    14132 1
   14708    14113    14114 1
   14709    14113    14133 1
   14710    14113    14134 1
   14711    14114    14115 1
   14712    14114    14135 1
   14713    14114    14136 1
   14714    14115    14116 1
   14715    14115    14137 1
   14716    14115    14138 1
   14717    14116    14117 1
   14718    14116    14139 1
   14719    14116    14140 1
   14720    14117    14118 1
   14721    14117    14141 1
   14722    14117    14142 1
   14723    14118    14119 1
   14724    14118    14143 1
   14725    14118    14144 1
   14726    14119    14120 1
   14727    14119    14145 1
   14728    14119    14146 1
   14729    14120    14121 1
   14730    14120    14147 1
   14731    14120    14148 1
   14732    14121    14122 1
   14733    14121    14149 1
   14734    14121    14150 1
   14735    14122    14123 1
   14736    14122    14151 1
   14737    14122    14152 1
   14738    14123    14124 1
   14739    14123    14153 1
   14740    14123    14154 1
   14741    14124    14155 1
   14742    14124    14156 1
   14743    14124    14157 1
   14744    14158    14159 1
   14745    14158    14165 1
   14746    14158    14181 1
   14747    14158    14230 1
   14748    14159    14160 1
   14749    14159    14163 1
   14750    14160    14161 1
   14751    14160    14164 1
   14752    14161    14162 1
   14753    14162    14163 1
   14754    14163    14169 1
   14755    14164    14165 1
   14756    14164    14168 1
   14757    14165    14166 1
   14758    14166    14167 1
   14759    14166    14170 1
   14760    14167    14168 1
   14761    14167    14179 1
   14762    14171    14172 1
   14763    14171    14179 1
   14764    14172    14173 1
   14765    14172    14180 1
   14766    14173    14174 1
   14767    14173    14283 1
   14768    14174    14175 1
   14769    14174    14178 1
   14770    14175    14176 1
   14771    14176    14177 1
   14772    14177    14178 1
   14773    14178    14179 1
   14774    14181    14182 1
   14775    14181    14197 1
   14776    14181    14198 1
   14777    14182    14183 1
   14778    14182    14199 1
   14779    14182    14200 1
   14780    14183    14184 1
   14781    14183    14201 1
   14782    14183    14202 1
   14783    14184    14185 1
   14784    14184    14203 1
   14785    14184    14204 1
   14786    14185    14186 1
   14787    14185    14205 1
   14788    14185    14206 1
   14789    14186    14187 1
   14790    14186    14207 1
   14791    14186    14208 1
   14792    14187    14188 1
   14793    14187    14209 1
   14794    14187    14210 1
   14795    14188    14189 1
   14796    14188    14211 1
   14797    14188    14212 1
   14798    14189    14190 1
   14799    14189    14213 1
   14800    14189    14214 1
   14801    14190    14191 1
   14802    14190    14215 1
   14803    14190    14216 1
   14804    14191    14192 1
   14805    14191    14217 1
   14806    14191    14218 1
   14807    14192    14193 1
   14808    14192    14219 1
   14809    14192    14220 1
   14810    14193    14194 1
   14811    14193    14221 1
   14812    14193    14222 1
   14813    14194    14195 1
   14814    14194    14223 1
   14815    14194    14224 1
   14816    14195    14196 1
   14817    14195    14225 1
   14818    14195    14226 1
   14819    14196    14227 1
   14820    14196    14228 1
   14821    14196    14229 1
   14822    14230    14231 1
   14823    14230    14246 1
   14824    14230    14247 1
   14825    14231    14232 1
   14826    14231    14248 1
   14827    14231    14249 1
   14828    14232    14233 1
   14829    14232    14250 1
   14830    14232    14251 1
   14831    14233    14234 1
   14832    14233    14252 1
   14833    14233    14253 1
   14834    14234    14235 1
   14835    14234    14254 1
   14836    14234    14255 1
   14837    14235    14236 1
   14838    14235    14256 1
   14839    14235    14257 1
   14840    14236    14237 1
   14841    14236    14258 1
   14842    14236    14259 1
   14843    14237    14238 1
   14844    14237    14260 1
   14845    14237    14261 1
   14846    14238    14239 1
   14847    14238    14262 1
   14848    14238    14263 1
   14849    14239    14240 1
   14850    14239    14264 1
   14851    14239    14265 1
   14852    14240    14241 1
   14853    14240    14266 1
   14854    14240    14267 1
   14855    14241    14242 1
   14856    14241    14268 1
   14857    14241    14269 1
   14858    14242    14243 1
   14859    14242    14270 1
   14860    14242    14271 1
   14861    14243    14244 1
   14862    14243    14272 1
   14863    14243    14273 1
   14864    14244    14245 1
   14865    14244    14274 1
   14866    14244    14275 1
   14867    14245    14276 1
   14868    14245    14277 1
   14869    14245    14278 1
   14870    14279    14280 1
   14871    14279    14286 1
   14872    14279    14302 1
   14873    14279    14351 1
   14874    14280    14281 1
   14875    14280    14284 1
   14876    14281    14282 1
   14877    14281    14285 1
   14878    14282    14283 1
   14879    14283    14284 1
   14880    14284    14290 1
   14881    14285    14286 1
   14882    14285    14289 1
   14883    14286    14287 1
   14884    14287    14288 1
   14885    14287    14291 1
   14886    14288    14289 1
   14887    14288    14300 1
   14888    14292    14293 1
   14889    14292    14300 1
   14890    14293    14294 1
   14891    14293    14301 1
   14892    14294    14295 1
   14893    14294    14404 1
   14894    14295    14296 1
   14895    14295    14299 1
   14896    14296    14297 1
   14897    14297    14298 1
   14898    14298    14299 1
   14899    14299    14300 1
   14900    14302    14303 1
   14901    14302    14318 1
   14902    14302    14319 1
   14903    14303    14304 1
   14904    14303    14320 1
   14905    14303    14321 1
   14906    14304    14305 1
   14907    14304    14322 1
   14908    14304    14323 1
   14909    14305    14306 1
   14910    14305    14324 1
   14911    14305    14325 1
   14912    14306    14307 1
   14913    14306    14326 1
   14914    14306    14327 1
   14915    14307    14308 1
   14916    14307    14328 1
   14917    14307    14329 1
   14918    14308    14309 1
   14919    14308    14330 1
   14920    14308    14331 1
   14921    14309    14310 1
   14922    14309    14332 1
   14923    14309    14333 1
   14924    14310    14311 1
   14925    14310    14334 1
   14926    14310    14335 1
   14927    14311    14312 1
   14928    14311    14336 1
   14929    14311    14337 1
   14930    14312    14313 1
   14931    14312    14338 1
   14932    14312    14339 1
   14933    14313    14314 1
   14934    14313    14340 1
   14935    14313    14341 1
   14936    14314    14315 1
   14937    14314    14342 1
   14938    14314    14343 1
   14939    14315    14316 1
   14940    14315    14344 1
   14941    14315    14345 1
   14942    14316    14317 1
   14943    14316    14346 1
   14944    14316    14347 1
   14945    14317    14348 1
   14946    14317    14349 1
   14947    14317    14350 1
   14948    14351    14352 1
   14949    14351    14367 1
   14950    14351    14368 1
   14951    14352    14353 1
   14952    14352    14369 1
   14953    14352    14370 1
   14954    14353    14354 1
   14955    14353    14371 1
   14956    14353    14372 1
   14957    14354    14355 1
   14958    14354    14373 1
   14959    14354    14374 1
   14960    14355    14356 1
   14961    14355    14375 1
   14962    14355    14376 1
   14963    14356    14357 1
   14964    14356    14377 1
   14965    14356    14378 1
   14966    14357    14358 1
   14967    14357    14379 1
   14968    14357    14380 1
   14969    14358    14359 1
   14970    14358    14381 1
   14971    14358    14382 1
   14972    14359    14360 1
   14973    14359    14383 1
   14974    14359    14384 1
   14975    14360    14361 1
   14976    14360    14385 1
   14977    14360    14386 1
   14978    14361    14362 1
   14979    14361    14387 1
   14980    14361    14388 1
   14981    14362    14363 1
   14982    14362    14389 1
   14983    14362    14390 1
   14984    14363    14364 1
   14985    14363    14391 1
   14986    14363    14392 1
   14987    14364    14365 1
   14988    14364    14393 1
   14989    14364    14394 1
   14990    14365    14366 1
   14991    14365    14395 1
   14992    14365    14396 1
   14993    14366    14397 1
   14994    14366    14398 1
   14995    14366    14399 1
   14996    14400    14401 1
   14997    14400    14407 1
   14998    14400    14423 1
   14999    14400    14472 1
   15000    14401    14402 1
   15001    14401    14405 1
   15002    14402    14403 1
   15003    14402    14406 1
   15004    14403    14404 1
   15005    14404    14405 1
   15006    14405    14411 1
   15007    14406    14407 1
   15008    14406    14410 1
   15009    14407    14408 1
   15010    14408    14409 1
   15011    14408    14412 1
   15012    14409    14410 1
   15013    14409    14421 1
   15014    14413    14414 1
   15015    14413    14421 1
   15016    14414    14415 1
   15017    14414    14422 1
   15018    14415    14416 1
   15019    14415    14525 1
   15020    14416    14417 1
   15021    14416    14420 1
   15022    14417    14418 1
   15023    14418    14419 1
   15024    14419    14420 1
   15025    14420    14421 1
   15026    14423    14424 1
   15027    14423    14439 1
   15028    14423    14440 1
   15029    14424    14425 1
   15030    14424    14441 1
   15031    14424    14442 1
   15032    14425    14426 1
   15033    14425    14443 1
   15034    14425    14444 1
   15035    14426    14427 1
   15036    14426    14445 1
   15037    14426    14446 1
   15038    14427    14428 1
   15039    14427    14447 1
   15040    14427    14448 1
   15041    14428    14429 1
   15042    14428    14449 1
   15043    14428    14450 1
   15044    14429    14430 1
   15045    14429    14451 1
   15046    14429    14452 1
   15047    14430    14431 1
   15048    14430    14453 1
   15049    14430    14454 1
   15050    14431    14432 1
   15051    14431    14455 1
   15052    14431    14456 1
   15053    14432    14433 1
   15054    14432    14457 1
   15055    14432    14458 1
   15056    14433    14434 1
   15057    14433    14459 1
   15058    14433    14460 1
   15059    14434    14435 1
   15060    14434    14461 1
   15061    14434    14462 1
   15062    14435    14436 1
   15063    14435    14463 1
   15064    14435    14464 1
   15065    14436    14437 1
   15066    14436    14465 1
   15067    14436    14466 1
   15068    14437    14438 1
   15069    14437    14467 1
   15070    14437    14468 1
   15071    14438    14469 1
   15072    14438    14470 1
   15073    14438    14471 1
   15074    14472    14473 1
   15075    14472    14488 1
   15076    14472    14489 1
   15077    14473    14474 1
   15078    14473    14490 1
   15079    14473    14491 1
   15080    14474    14475 1
   15081    14474    14492 1
   15082    14474    14493 1
   15083    14475    14476 1
   15084    14475    14494 1
   15085    14475    14495 1
   15086    14476    14477 1
   15087    14476    14496 1
   15088    14476    14497 1
   15089    14477    14478 1
   15090    14477    14498 1
   15091    14477    14499 1
   15092    14478    14479 1
   15093    14478    14500 1
   15094    14478    14501 1
   15095    14479    14480 1
   15096    14479    14502 1
   15097    14479    14503 1
   15098    14480    14481 1
   15099    14480    14504 1
   15100    14480    14505 1
   15101    14481    14482 1
   15102    14481    14506 1
   15103    14481    14507 1
   15104    14482    14483 1
   15105    14482    14508 1
   15106    14482    14509 1
   15107    14483    14484 1
   15108    14483    14510 1
   15109    14483    14511 1
   15110    14484    14485 1
   15111    14484    14512 1
   15112    14484    14513 1
   15113    14485    14486 1
   15114    14485    14514 1
   15115    14485    14515 1
   15116    14486    14487 1
   15117    14486    14516 1
   15118    14486    14517 1
   15119    14487    14518 1
   15120    14487    14519 1
   15121    14487    14520 1
   15122    14521    14522 1
   15123    14521    14528 1
   15124    14521    14544 1
   15125    14521    14593 1
   15126    14522    14523 1
   15127    14522    14526 1
   15128    14523    14524 1
   15129    14523    14527 1
   15130    14524    14525 1
   15131    14525    14526 1
   15132    14526    14532 1
   15133    14527    14528 1
   15134    14527    14531 1
   15135    14528    14529 1
   15136    14529    14530 1
   15137    14529    14533 1
   15138    14530    14531 1
   15139    14530    14542 1
   15140    14534    14535 1
   15141    14534    14542 1
   15142    14535    14536 1
   15143    14535    14543 1
   15144    14536    14537 1
   15145    14536    14646 1
   15146    14537    14538 1
   15147    14537    14541 1
   15148    14538    14539 1
   15149    14539    14540 1
   15150    14540    14541 1
   15151    14541    14542 1
   15152    14544    14545 1
   15153    14544    14560 1
   15154    14544    14561 1
   15155    14545    14546 1
   15156    14545    14562 1
   15157    14545    14563 1
   15158    14546    14547 1
   15159    14546    14564 1
   15160    14546    14565 1
   15161    14547    14548 1
   15162    14547    14566 1
   15163    14547    14567 1
   15164    14548    14549 1
   15165    14548    14568 1
   15166    14548    14569 1
   15167    14549    14550 1
   15168    14549    14570 1
   15169    14549    14571 1
   15170    14550    14551 1
   15171    14550    14572 1
   15172    14550    14573 1
   15173    14551    14552 1
   15174    14551    14574 1
   15175    14551    14575 1
   15176    14552    14553 1
   15177    14552    14576 1
   15178    14552    14577 1
   15179    14553    14554 1
   15180    14553    14578 1
   15181    14553    14579 1
   15182    14554    14555 1
   15183    14554    14580 1
   15184    14554    14581 1
   15185    14555    14556 1
   15186    14555    14582 1
   15187    14555    14583 1
   15188    14556    14557 1
   15189    14556    14584 1
   15190    14556    14585 1
   15191    14557    14558 1
   15192    14557    14586 1
   15193    14557    14587 1
   15194    14558    14559 1
   15195    14558    14588 1
   15196    14558    14589 1
   15197    14559    14590 1
   15198    14559    14591 1
   15199    14559    14592 1
   15200    14593    14594 1
   15201    14593    14609 1
   15202    14593    14610 1
   15203    14594    14595 1
   15204    14594    14611 1
   15205    14594    14612 1
   15206    14595    14596 1
   15207    14595    14613 1
   15208    14595    14614 1
   15209    14596    14597 1
   15210    14596    14615 1
   15211    14596    14616 1
   15212    14597    14598 1
   15213    14597    14617 1
   15214    14597    14618 1
   15215    14598    14599 1
   15216    14598    14619 1
   15217    14598    14620 1
   15218    14599    14600 1
   15219    14599    14621 1
   15220    14599    14622 1
   15221    14600    14601 1
   15222    14600    14623 1
   15223    14600    14624 1
   15224    14601    14602 1
   15225    14601    14625 1
   15226    14601    14626 1
   15227    14602    14603 1
   15228    14602    14627 1
   15229    14602    14628 1
   15230    14603    14604 1
   15231    14603    14629 1
   15232    14603    14630 1
   15233    14604    14605 1
   15234    14604    14631 1
   15235    14604    14632 1
   15236    14605    14606 1
   15237    14605    14633 1
   15238    14605    14634 1
   15239    14606    14607 1
   15240    14606    14635 1
   15241    14606    14636 1
   15242    14607    14608 1
   15243    14607    14637 1
   15244    14607    14638 1
   15245    14608    14639 1
   15246    14608    14640 1
   15247    14608    14641 1
   15248    14642    14643 1
   15249    14642    14649 1
   15250    14642    14665 1
   15251    14642    14714 1
   15252    14643    14644 1
   15253    14643    14647 1
   15254    14644    14645 1
   15255    14644    14648 1
   15256    14645    14646 1
   15257    14646    14647 1
   15258    14647    14653 1
   15259    14648    14649 1
   15260    14648    14652 1
   15261    14649    14650 1
   15262    14650    14651 1
   15263    14650    14654 1
   15264    14651    14652 1
   15265    14651    14663 1
   15266    14655    14656 1
   15267    14655    14663 1
   15268    14656    14657 1
   15269    14656    14664 1
   15270    14657    14658 1
   15271    14657    14767 1
   15272    14658    14659 1
   15273    14658    14662 1
   15274    14659    14660 1
   15275    14660    14661 1
   15276    14661    14662 1
   15277    14662    14663 1
   15278    14665    14666 1
   15279    14665    14681 1
   15280    14665    14682 1
   15281    14666    14667 1
   15282    14666    14683 1
   15283    14666    14684 1
   15284    14667    14668 1
   15285    14667    14685 1
   15286    14667    14686 1
   15287    14668    14669 1
   15288    14668    14687 1
   15289    14668    14688 1
   15290    14669    14670 1
   15291    14669    14689 1
   15292    14669    14690 1
   15293    14670    14671 1
   15294    14670    14691 1
   15295    14670    14692 1
   15296    14671    14672 1
   15297    14671    14693 1
   15298    14671    14694 1
   15299    14672    14673 1
   15300    14672    14695 1
   15301    14672    14696 1
   15302    14673    14674 1
   15303    14673    14697 1
   15304    14673    14698 1
   15305    14674    14675 1
   15306    14674    14699 1
   15307    14674    14700 1
   15308    14675    14676 1
   15309    14675    14701 1
   15310    14675    14702 1
   15311    14676    14677 1
   15312    14676    14703 1
   15313    14676    14704 1
   15314    14677    14678 1
   15315    14677    14705 1
   15316    14677    14706 1
   15317    14678    14679 1
   15318    14678    14707 1
   15319    14678    14708 1
   15320    14679    14680 1
   15321    14679    14709 1
   15322    14679    14710 1
   15323    14680    14711 1
   15324    14680    14712 1
   15325    14680    14713 1
   15326    14714    14715 1
   15327    14714    14730 1
   15328    14714    14731 1
   15329    14715    14716 1
   15330    14715    14732 1
   15331    14715    14733 1
   15332    14716    14717 1
   15333    14716    14734 1
   15334    14716    14735 1
   15335    14717    14718 1
   15336    14717    14736 1
   15337    14717    14737 1
   15338    14718    14719 1
   15339    14718    14738 1
   15340    14718    14739 1
   15341    14719    14720 1
   15342    14719    14740 1
   15343    14719    14741 1
   15344    14720    14721 1
   15345    14720    14742 1
   15346    14720    14743 1
   15347    14721    14722 1
   15348    14721    14744 1
   15349    14721    14745 1
   15350    14722    14723 1
   15351    14722    14746 1
   15352    14722    14747 1
   15353    14723    14724 1
   15354    14723    14748 1
   15355    14723    14749 1
   15356    14724    14725 1
   15357    14724    14750 1
   15358    14724    14751 1
   15359    14725    14726 1
   15360    14725    14752 1
   15361    14725    14753 1
   15362    14726    14727 1
   15363    14726    14754 1
   15364    14726    14755 1
   15365    14727    14728 1
   15366    14727    14756 1
   15367    14727    14757 1
   15368    14728    14729 1
   15369    14728    14758 1
   15370    14728    14759 1
   15371    14729    14760 1
   15372    14729    14761 1
   15373    14729    14762 1
   15374    14763    14764 1
   15375    14763    14770 1
   15376    14763    14786 1
   15377    14763    14835 1
   15378    14764    14765 1
   15379    14764    14768 1
   15380    14765    14766 1
   15381    14765    14769 1
   15382    14766    14767 1
   15383    14767    14768 1
   15384    14768    14774 1
   15385    14769    14770 1
   15386    14769    14773 1
   15387    14770    14771 1
   15388    14771    14772 1
   15389    14771    14775 1
   15390    14772    14773 1
   15391    14772    14784 1
   15392    14776    14777 1
   15393    14776    14784 1
   15394    14777    14778 1
   15395    14777    14785 1
   15396    14778    14779 1
   15397    14778    14888 1
   15398    14779    14780 1
   15399    14779    14783 1
   15400    14780    14781 1
   15401    14781    14782 1
   15402    14782    14783 1
   15403    14783    14784 1
   15404    14786    14787 1
   15405    14786    14802 1
   15406    14786    14803 1
   15407    14787    14788 1
   15408    14787    14804 1
   15409    14787    14805 1
   15410    14788    14789 1
   15411    14788    14806 1
   15412    14788    14807 1
   15413    14789    14790 1
   15414    14789    14808 1
   15415    14789    14809 1
   15416    14790    14791 1
   15417    14790    14810 1
   15418    14790    14811 1
   15419    14791    14792 1
   15420    14791    14812 1
   15421    14791    14813 1
   15422    14792    14793 1
   15423    14792    14814 1
   15424    14792    14815 1
   15425    14793    14794 1
   15426    14793    14816 1
   15427    14793    14817 1
   15428    14794    14795 1
   15429    14794    14818 1
   15430    14794    14819 1
   15431    14795    14796 1
   15432    14795    14820 1
   15433    14795    14821 1
   15434    14796    14797 1
   15435    14796    14822 1
   15436    14796    14823 1
   15437    14797    14798 1
   15438    14797    14824 1
   15439    14797    14825 1
   15440    14798    14799 1
   15441    14798    14826 1
   15442    14798    14827 1
   15443    14799    14800 1
   15444    14799    14828 1
   15445    14799    14829 1
   15446    14800    14801 1
   15447    14800    14830 1
   15448    14800    14831 1
   15449    14801    14832 1
   15450    14801    14833 1
   15451    14801    14834 1
   15452    14835    14836 1
   15453    14835    14851 1
   15454    14835    14852 1
   15455    14836    14837 1
   15456    14836    14853 1
   15457    14836    14854 1
   15458    14837    14838 1
   15459    14837    14855 1
   15460    14837    14856 1
   15461    14838    14839 1
   15462    14838    14857 1
   15463    14838    14858 1
   15464    14839    14840 1
   15465    14839    14859 1
   15466    14839    14860 1
   15467    14840    14841 1
   15468    14840    14861 1
   15469    14840    14862 1
   15470    14841    14842 1
   15471    14841    14863 1
   15472    14841    14864 1
   15473    14842    14843 1
   15474    14842    14865 1
   15475    14842    14866 1
   15476    14843    14844 1
   15477    14843    14867 1
   15478    14843    14868 1
   15479    14844    14845 1
   15480    14844    14869 1
   15481    14844    14870 1
   15482    14845    14846 1
   15483    14845    14871 1
   15484    14845    14872 1
   15485    14846    14847 1
   15486    14846    14873 1
   15487    14846    14874 1
   15488    14847    14848 1
   15489    14847    14875 1
   15490    14847    14876 1
   15491    14848    14849 1
   15492    14848    14877 1
   15493    14848    14878 1
   15494    14849    14850 1
   15495    14849    14879 1
   15496    14849    14880 1
   15497    14850    14881 1
   15498    14850    14882 1
   15499    14850    14883 1
   15500    14884    14885 1
   15501    14884    14891 1
   15502    14884    14907 1
   15503    14884    14956 1
   15504    14885    14886 1
   15505    14885    14889 1
   15506    14886    14887 1
   15507    14886    14890 1
   15508    14887    14888 1
   15509    14888    14889 1
   15510    14889    14895 1
   15511    14890    14891 1
   15512    14890    14894 1
   15513    14891    14892 1
   15514    14892    14893 1
   15515    14892    14896 1
   15516    14893    14894 1
   15517    14893    14905 1
   15518    14897    14898 1
   15519    14897    14905 1
   15520    14898    14899 1
   15521    14898    14906 1
   15522    14899    14900 1
   15523    14899    15009 1
   15524    14900    14901 1
   15525    14900    14904 1
   15526    14901    14902 1
   15527    14902    14903 1
   15528    14903    14904 1
   15529    14904    14905 1
   15530    14907    14908 1
   15531    14907    14923 1
   15532    14907    14924 1
   15533    14908    14909 1
   15534    14908    14925 1
   15535    14908    14926 1
   15536    14909    14910 1
   15537    14909    14927 1
   15538    14909    14928 1
   15539    14910    14911 1
   15540    14910    14929 1
   15541    14910    14930 1
   15542    14911    14912 1
   15543    14911    14931 1
   15544    14911    14932 1
   15545    14912    14913 1
   15546    14912    14933 1
   15547    14912    14934 1
   15548    14913    14914 1
   15549    14913    14935 1
   15550    14913    14936 1
   15551    14914    14915 1
   15552    14914    14937 1
   15553    14914    14938 1
   15554    14915    14916 1
   15555    14915    14939 1
   15556    14915    14940 1
   15557    14916    14917 1
   15558    14916    14941 1
   15559    14916    14942 1
   15560    14917    14918 1
   15561    14917    14943 1
   15562    14917    14944 1
   15563    14918    14919 1
   15564    14918    14945 1
   15565    14918    14946 1
   15566    14919    14920 1
   15567    14919    14947 1
   15568    14919    14948 1
   15569    14920    14921 1
   15570    14920    14949 1
   15571    14920    14950 1
   15572    14921    14922 1
   15573    14921    14951 1
   15574    14921    14952 1
   15575    14922    14953 1
   15576    14922    14954 1
   15577    14922    14955 1
   15578    14956    14957 1
   15579    14956    14972 1
   15580    14956    14973 1
   15581    14957    14958 1
   15582    14957    14974 1
   15583    14957    14975 1
   15584    14958    14959 1
   15585    14958    14976 1
   15586    14958    14977 1
   15587    14959    14960 1
   15588    14959    14978 1
   15589    14959    14979 1
   15590    14960    14961 1
   15591    14960    14980 1
   15592    14960    14981 1
   15593    14961    14962 1
   15594    14961    14982 1
   15595    14961    14983 1
   15596    14962    14963 1
   15597    14962    14984 1
   15598    14962    14985 1
   15599    14963    14964 1
   15600    14963    14986 1
   15601    14963    14987 1
   15602    14964    14965 1
   15603    14964    14988 1
   15604    14964    14989 1
   15605    14965    14966 1
   15606    14965    14990 1
   15607    14965    14991 1
   15608    14966    14967 1
   15609    14966    14992 1
   15610    14966    14993 1
   15611    14967    14968 1
   15612    14967    14994 1
   15613    14967    14995 1
   15614    14968    14969 1
   15615    14968    14996 1
   15616    14968    14997 1
   15617    14969    14970 1
   15618    14969    14998 1
   15619    14969    14999 1
   15620    14970    14971 1
   15621    14970    15000 1
   15622    14970    15001 1
   15623    14971    15002 1
   15624    14971    15003 1
   15625    14971    15004 1
   15626    15005    15006 1
   15627    15005    15012 1
   15628    15005    15028 1
   15629    15005    15077 1
   15630    15006    15007 1
   15631    15006    15010 1
   15632    15007    15008 1
   15633    15007    15011 1
   15634    15008    15009 1
   15635    15009    15010 1
   15636    15010    15016 1
   15637    15011    15012 1
   15638    15011    15015 1
   15639    15012    15013 1
   15640    15013    15014 1
   15641    15013    15017 1
   15642    15014    15015 1
   15643    15014    15026 1
   15644    15018    15019 1
   15645    15018    15026 1
   15646    15019    15020 1
   15647    15019    15027 1
   15648    15020    15021 1
   15649    15020    15130 1
   15650    15021    15022 1
   15651    15021    15025 1
   15652    15022    15023 1
   15653    15023    15024 1
   15654    15024    15025 1
   15655    15025    15026 1
   15656    15028    15029 1
   15657    15028    15044 1
   15658    15028    15045 1
   15659    15029    15030 1
   15660    15029    15046 1
   15661    15029    15047 1
   15662    15030    15031 1
   15663    15030    15048 1
   15664    15030    15049 1
   15665    15031    15032 1
   15666    15031    15050 1
   15667    15031    15051 1
   15668    15032    15033 1
   15669    15032    15052 1
   15670    15032    15053 1
   15671    15033    15034 1
   15672    15033    15054 1
   15673    15033    15055 1
   15674    15034    15035 1
   15675    15034    15056 1
   15676    15034    15057 1
   15677    15035    15036 1
   15678    15035    15058 1
   15679    15035    15059 1
   15680    15036    15037 1
   15681    15036    15060 1
   15682    15036    15061 1
   15683    15037    15038 1
   15684    15037    15062 1
   15685    15037    15063 1
   15686    15038    15039 1
   15687    15038    15064 1
   15688    15038    15065 1
   15689    15039    15040 1
   15690    15039    15066 1
   15691    15039    15067 1
   15692    15040    15041 1
   15693    15040    15068 1
   15694    15040    15069 1
   15695    15041    15042 1
   15696    15041    15070 1
   15697    15041    15071 1
   15698    15042    15043 1
   15699    15042    15072 1
   15700    15042    15073 1
   15701    15043    15074 1
   15702    15043    15075 1
   15703    15043    15076 1
   15704    15077    15078 1
   15705    15077    15093 1
   15706    15077    15094 1
   15707    15078    15079 1
   15708    15078    15095 1
   15709    15078    15096 1
   15710    15079    15080 1
   15711    15079    15097 1
   15712    15079    15098 1
   15713    15080    15081 1
   15714    15080    15099 1
   15715    15080    15100 1
   15716    15081    15082 1
   15717    15081    15101 1
   15718    15081    15102 1
   15719    15082    15083 1
   15720    15082    15103 1
   15721    15082    15104 1
   15722    15083    15084 1
   15723    15083    15105 1
   15724    15083    15106 1
   15725    15084    15085 1
   15726    15084    15107 1
   15727    15084    15108 1
   15728    15085    15086 1
   15729    15085    15109 1
   15730    15085    15110 1
   15731    15086    15087 1
   15732    15086    15111 1
   15733    15086    15112 1
   15734    15087    15088 1
   15735    15087    15113 1
   15736    15087    15114 1
   15737    15088    15089 1
   15738    15088    15115 1
   15739    15088    15116 1
   15740    15089    15090 1
   15741    15089    15117 1
   15742    15089    15118 1
   15743    15090    15091 1
   15744    15090    15119 1
   15745    15090    15120 1
   15746    15091    15092 1
   15747    15091    15121 1
   15748    15091    15122 1
   15749    15092    15123 1
   15750    15092    15124 1
   15751    15092    15125 1
   15752    15126    15127 1
   15753    15126    15133 1
   15754    15126    15149 1
   15755    15126    15198 1
   15756    15127    15128 1
   15757    15127    15131 1
   15758    15128    15129 1
   15759    15128    15132 1
   15760    15129    15130 1
   15761    15130    15131 1
   15762    15131    15137 1
   15763    15132    15133 1
   15764    15132    15136 1
   15765    15133    15134 1
   15766    15134    15135 1
   15767    15134    15138 1
   15768    15135    15136 1
   15769    15135    15147 1
   15770    15139    15140 1
   15771    15139    15147 1
   15772    15140    15141 1
   15773    15140    15148 1
   15774    15141    15142 1
   15775    15141    15251 1
   15776    15142    15143 1
   15777    15142    15146 1
   15778    15143    15144 1
   15779    15144    15145 1
   15780    15145    15146 1
   15781    15146    15147 1
   15782    15149    15150 1
   15783    15149    15165 1
   15784    15149    15166 1
   15785    15150    15151 1
   15786    15150    15167 1
   15787    15150    15168 1
   15788    15151    15152 1
   15789    15151    15169 1
   15790    15151    15170 1
   15791    15152    15153 1
   15792    15152    15171 1
   15793    15152    15172 1
   15794    15153    15154 1
   15795    15153    15173 1
   15796    15153    15174 1
   15797    15154    15155 1
   15798    15154    15175 1
   15799    15154    15176 1
   15800    15155    15156 1
   15801    15155    15177 1
   15802    15155    15178 1
   15803    15156    15157 1
   15804    15156    15179 1
   15805    15156    15180 1
   15806    15157    15158 1
   15807    15157    15181 1
   15808    15157    15182 1
   15809    15158    15159 1
   15810    15158    15183 1
   15811    15158    15184 1
   15812    15159    15160 1
   15813    15159    15185 1
   15814    15159    15186 1
   15815    15160    15161 1
   15816    15160    15187 1
   15817    15160    15188 1
   15818    15161    15162 1
   15819    15161    15189 1
   15820    15161    15190 1
   15821    15162    15163 1
   15822    15162    15191 1
   15823    15162    15192 1
   15824    15163    15164 1
   15825    15163    15193 1
   15826    15163    15194 1
   15827    15164    15195 1
   15828    15164    15196 1
   15829    15164    15197 1
   15830    15198    15199 1
   15831    15198    15214 1
   15832    15198    15215 1
   15833    15199    15200 1
   15834    15199    15216 1
   15835    15199    15217 1
   15836    15200    15201 1
   15837    15200    15218 1
   15838    15200    15219 1
   15839    15201    15202 1
   15840    15201    15220 1
   15841    15201    15221 1
   15842    15202    15203 1
   15843    15202    15222 1
   15844    15202    15223 1
   15845    15203    15204 1
   15846    15203    15224 1
   15847    15203    15225 1
   15848    15204    15205 1
   15849    15204    15226 1
   15850    15204    15227 1
   15851    15205    15206 1
   15852    15205    15228 1
   15853    15205    15229 1
   15854    15206    15207 1
   15855    15206    15230 1
   15856    15206    15231 1
   15857    15207    15208 1
   15858    15207    15232 1
   15859    15207    15233 1
   15860    15208    15209 1
   15861    15208    15234 1
   15862    15208    15235 1
   15863    15209    15210 1
   15864    15209    15236 1
   15865    15209    15237 1
   15866    15210    15211 1
   15867    15210    15238 1
   15868    15210    15239 1
   15869    15211    15212 1
   15870    15211    15240 1
   15871    15211    15241 1
   15872    15212    15213 1
   15873    15212    15242 1
   15874    15212    15243 1
   15875    15213    15244 1
   15876    15213    15245 1
   15877    15213    15246 1
   15878    15247    15248 1
   15879    15247    15254 1
   15880    15247    15270 1
   15881    15247    15319 1
   15882    15248    15249 1
   15883    15248    15252 1
   15884    15249    15250 1
   15885    15249    15253 1
   15886    15250    15251 1
   15887    15251    15252 1
   15888    15252    15258 1
   15889    15253    15254 1
   15890    15253    15257 1
   15891    15254    15255 1
   15892    15255    15256 1
   15893    15255    15259 1
   15894    15256    15257 1
   15895    15256    15268 1
   15896    15260    15261 1
   15897    15260    15268 1
   15898    15261    15262 1
   15899    15261    15269 1
   15900    15262    15263 1
   15901    15262    15372 1
   15902    15263    15264 1
   15903    15263    15267 1
   15904    15264    15265 1
   15905    15265    15266 1
   15906    15266    15267 1
   15907    15267    15268 1
   15908    15270    15271 1
   15909    15270    15286 1
   15910    15270    15287 1
   15911    15271    15272 1
   15912    15271    15288 1
   15913    15271    15289 1
   15914    15272    15273 1
   15915    15272    15290 1
   15916    15272    15291 1
   15917    15273    15274 1
   15918    15273    15292 1
   15919    15273    15293 1
   15920    15274    15275 1
   15921    15274    15294 1
   15922    15274    15295 1
   15923    15275    15276 1
   15924    15275    15296 1
   15925    15275    15297 1
   15926    15276    15277 1
   15927    15276    15298 1
   15928    15276    15299 1
   15929    15277    15278 1
   15930    15277    15300 1
   15931    15277    15301 1
   15932    15278    15279 1
   15933    15278    15302 1
   15934    15278    15303 1
   15935    15279    15280 1
   15936    15279    15304 1
   15937    15279    15305 1
   15938    15280    15281 1
   15939    15280    15306 1
   15940    15280    15307 1
   15941    15281    15282 1
   15942    15281    15308 1
   15943    15281    15309 1
   15944    15282    15283 1
   15945    15282    15310 1
   15946    15282    15311 1
   15947    15283    15284 1
   15948    15283    15312 1
   15949    15283    15313 1
   15950    15284    15285 1
   15951    15284    15314 1
   15952    15284    15315 1
   15953    15285    15316 1
   15954    15285    15317 1
   15955    15285    15318 1
   15956    15319    15320 1
   15957    15319    15335 1
   15958    15319    15336 1
   15959    15320    15321 1
   15960    15320    15337 1
   15961    15320    15338 1
   15962    15321    15322 1
   15963    15321    15339 1
   15964    15321    15340 1
   15965    15322    15323 1
   15966    15322    15341 1
   15967    15322    15342 1
   15968    15323    15324 1
   15969    15323    15343 1
   15970    15323    15344 1
   15971    15324    15325 1
   15972    15324    15345 1
   15973    15324    15346 1
   15974    15325    15326 1
   15975    15325    15347 1
   15976    15325    15348 1
   15977    15326    15327 1
   15978    15326    15349 1
   15979    15326    15350 1
   15980    15327    15328 1
   15981    15327    15351 1
   15982    15327    15352 1
   15983    15328    15329 1
   15984    15328    15353 1
   15985    15328    15354 1
   15986    15329    15330 1
   15987    15329    15355 1
   15988    15329    15356 1
   15989    15330    15331 1
   15990    15330    15357 1
   15991    15330    15358 1
   15992    15331    15332 1
   15993    15331    15359 1
   15994    15331    15360 1
   15995    15332    15333 1
   15996    15332    15361 1
   15997    15332    15362 1
   15998    15333    15334 1
   15999    15333    15363 1
   16000    15333    15364 1
   16001    15334    15365 1
   16002    15334    15366 1
   16003    15334    15367 1
   16004    15368    15369 1
   16005    15368    15375 1
   16006    15368    15391 1
   16007    15368    15440 1
   16008    15369    15370 1
   16009    15369    15373 1
   16010    15370    15371 1
   16011    15370    15374 1
   16012    15371    15372 1
   16013    15372    15373 1
   16014    15373    15379 1
   16015    15374    15375 1
   16016    15374    15378 1
   16017    15375    15376 1
   16018    15376    15377 1
   16019    15376    15380 1
   16020    15377    15378 1
   16021    15377    15389 1
   16022    15381    15382 1
   16023    15381    15389 1
   16024    15382    15383 1
   16025    15382    15390 1
   16026    15383    15384 1
   16027    15383    15493 1
   16028    15384    15385 1
   16029    15384    15388 1
   16030    15385    15386 1
   16031    15386    15387 1
   16032    15387    15388 1
   16033    15388    15389 1
   16034    15391    15392 1
   16035    15391    15407 1
   16036    15391    15408 1
   16037    15392    15393 1
   16038    15392    15409 1
   16039    15392    15410 1
   16040    15393    15394 1
   16041    15393    15411 1
   16042    15393    15412 1
   16043    15394    15395 1
   16044    15394    15413 1
   16045    15394    15414 1
   16046    15395    15396 1
   16047    15395    15415 1
   16048    15395    15416 1
   16049    15396    15397 1
   16050    15396    15417 1
   16051    15396    15418 1
   16052    15397    15398 1
   16053    15397    15419 1
   16054    15397    15420 1
   16055    15398    15399 1
   16056    15398    15421 1
   16057    15398    15422 1
   16058    15399    15400 1
   16059    15399    15423 1
   16060    15399    15424 1
   16061    15400    15401 1
   16062    15400    15425 1
   16063    15400    15426 1
   16064    15401    15402 1
   16065    15401    15427 1
   16066    15401    15428 1
   16067    15402    15403 1
   16068    15402    15429 1
   16069    15402    15430 1
   16070    15403    15404 1
   16071    15403    15431 1
   16072    15403    15432 1
   16073    15404    15405 1
   16074    15404    15433 1
   16075    15404    15434 1
   16076    15405    15406 1
   16077    15405    15435 1
   16078    15405    15436 1
   16079    15406    15437 1
   16080    15406    15438 1
   16081    15406    15439 1
   16082    15440    15441 1
   16083    15440    15456 1
   16084    15440    15457 1
   16085    15441    15442 1
   16086    15441    15458 1
   16087    15441    15459 1
   16088    15442    15443 1
   16089    15442    15460 1
   16090    15442    15461 1
   16091    15443    15444 1
   16092    15443    15462 1
   16093    15443    15463 1
   16094    15444    15445 1
   16095    15444    15464 1
   16096    15444    15465 1
   16097    15445    15446 1
   16098    15445    15466 1
   16099    15445    15467 1
   16100    15446    15447 1
   16101    15446    15468 1
   16102    15446    15469 1
   16103    15447    15448 1
   16104    15447    15470 1
   16105    15447    15471 1
   16106    15448    15449 1
   16107    15448    15472 1
   16108    15448    15473 1
   16109    15449    15450 1
   16110    15449    15474 1
   16111    15449    15475 1
   16112    15450    15451 1
   16113    15450    15476 1
   16114    15450    15477 1
   16115    15451    15452 1
   16116    15451    15478 1
   16117    15451    15479 1
   16118    15452    15453 1
   16119    15452    15480 1
   16120    15452    15481 1
   16121    15453    15454 1
   16122    15453    15482 1
   16123    15453    15483 1
   16124    15454    15455 1
   16125    15454    15484 1
   16126    15454    15485 1
   16127    15455    15486 1
   16128    15455    15487 1
   16129    15455    15488 1
   16130    15489    15490 1
   16131    15489    15496 1
   16132    15489    15512 1
   16133    15489    15561 1
   16134    15490    15491 1
   16135    15490    15494 1
   16136    15491    15492 1
   16137    15491    15495 1
   16138    15492    15493 1
   16139    15493    15494 1
   16140    15494    15500 1
   16141    15495    15496 1
   16142    15495    15499 1
   16143    15496    15497 1
   16144    15497    15498 1
   16145    15497    15501 1
   16146    15498    15499 1
   16147    15498    15510 1
   16148    15502    15503 1
   16149    15502    15510 1
   16150    15503    15504 1
   16151    15503    15511 1
   16152    15504    15505 1
   16153    15504    15614 1
   16154    15505    15506 1
   16155    15505    15509 1
   16156    15506    15507 1
   16157    15507    15508 1
   16158    15508    15509 1
   16159    15509    15510 1
   16160    15512    15513 1
   16161    15512    15528 1
   16162    15512    15529 1
   16163    15513    15514 1
   16164    15513    15530 1
   16165    15513    15531 1
   16166    15514    15515 1
   16167    15514    15532 1
   16168    15514    15533 1
   16169    15515    15516 1
   16170    15515    15534 1
   16171    15515    15535 1
   16172    15516    15517 1
   16173    15516    15536 1
   16174    15516    15537 1
   16175    15517    15518 1
   16176    15517    15538 1
   16177    15517    15539 1
   16178    15518    15519 1
   16179    15518    15540 1
   16180    15518    15541 1
   16181    15519    15520 1
   16182    15519    15542 1
   16183    15519    15543 1
   16184    15520    15521 1
   16185    15520    15544 1
   16186    15520    15545 1
   16187    15521    15522 1
   16188    15521    15546 1
   16189    15521    15547 1
   16190    15522    15523 1
   16191    15522    15548 1
   16192    15522    15549 1
   16193    15523    15524 1
   16194    15523    15550 1
   16195    15523    15551 1
   16196    15524    15525 1
   16197    15524    15552 1
   16198    15524    15553 1
   16199    15525    15526 1
   16200    15525    15554 1
   16201    15525    15555 1
   16202    15526    15527 1
   16203    15526    15556 1
   16204    15526    15557 1
   16205    15527    15558 1
   16206    15527    15559 1
   16207    15527    15560 1
   16208    15561    15562 1
   16209    15561    15577 1
   16210    15561    15578 1
   16211    15562    15563 1
   16212    15562    15579 1
   16213    15562    15580 1
   16214    15563    15564 1
   16215    15563    15581 1
   16216    15563    15582 1
   16217    15564    15565 1
   16218    15564    15583 1
   16219    15564    15584 1
   16220    15565    15566 1
   16221    15565    15585 1
   16222    15565    15586 1
   16223    15566    15567 1
   16224    15566    15587 1
   16225    15566    15588 1
   16226    15567    15568 1
   16227    15567    15589 1
   16228    15567    15590 1
   16229    15568    15569 1
   16230    15568    15591 1
   16231    15568    15592 1
   16232    15569    15570 1
   16233    15569    15593 1
   16234    15569    15594 1
   16235    15570    15571 1
   16236    15570    15595 1
   16237    15570    15596 1
   16238    15571    15572 1
   16239    15571    15597 1
   16240    15571    15598 1
   16241    15572    15573 1
   16242    15572    15599 1
   16243    15572    15600 1
   16244    15573    15574 1
   16245    15573    15601 1
   16246    15573    15602 1
   16247    15574    15575 1
   16248    15574    15603 1
   16249    15574    15604 1
   16250    15575    15576 1
   16251    15575    15605 1
   16252    15575    15606 1
   16253    15576    15607 1
   16254    15576    15608 1
   16255    15576    15609 1
   16256    15610    15611 1
   16257    15610    15617 1
   16258    15610    15633 1
   16259    15610    15682 1
   16260    15611    15612 1
   16261    15611    15615 1
   16262    15612    15613 1
   16263    15612    15616 1
   16264    15613    15614 1
   16265    15614    15615 1
   16266    15615    15621 1
   16267    15616    15617 1
   16268    15616    15620 1
   16269    15617    15618 1
   16270    15618    15619 1
   16271    15618    15622 1
   16272    15619    15620 1
   16273    15619    15631 1
   16274    15623    15624 1
   16275    15623    15631 1
   16276    15624    15625 1
   16277    15624    15632 1
   16278    15625    15626 1
   16279    15625    15735 1
   16280    15626    15627 1
   16281    15626    15630 1
   16282    15627    15628 1
   16283    15628    15629 1
   16284    15629    15630 1
   16285    15630    15631 1
   16286    15633    15634 1
   16287    15633    15649 1
   16288    15633    15650 1
   16289    15634    15635 1
   16290    15634    15651 1
   16291    15634    15652 1
   16292    15635    15636 1
   16293    15635    15653 1
   16294    15635    15654 1
   16295    15636    15637 1
   16296    15636    15655 1
   16297    15636    15656 1
   16298    15637    15638 1
   16299    15637    15657 1
   16300    15637    15658 1
   16301    15638    15639 1
   16302    15638    15659 1
   16303    15638    15660 1
   16304    15639    15640 1
   16305    15639    15661 1
   16306    15639    15662 1
   16307    15640    15641 1
   16308    15640    15663 1
   16309    15640    15664 1
   16310    15641    15642 1
   16311    15641    15665 1
   16312    15641    15666 1
   16313    15642    15643 1
   16314    15642    15667 1
   16315    15642    15668 1
   16316    15643    15644 1
   16317    15643    15669 1
   16318    15643    15670 1
   16319    15644    15645 1
   16320    15644    15671 1
   16321    15644    15672 1
   16322    15645    15646 1
   16323    15645    15673 1
   16324    15645    15674 1
   16325    15646    15647 1
   16326    15646    15675 1
   16327    15646    15676 1
   16328    15647    15648 1
   16329    15647    15677 1
   16330    15647    15678 1
   16331    15648    15679 1
   16332    15648    15680 1
   16333    15648    15681 1
   16334    15682    15683 1
   16335    15682    15698 1
   16336    15682    15699 1
   16337    15683    15684 1
   16338    15683    15700 1
   16339    15683    15701 1
   16340    15684    15685 1
   16341    15684    15702 1
   16342    15684    15703 1
   16343    15685    15686 1
   16344    15685    15704 1
   16345    15685    15705 1
   16346    15686    15687 1
   16347    15686    15706 1
   16348    15686    15707 1
   16349    15687    15688 1
   16350    15687    15708 1
   16351    15687    15709 1
   16352    15688    15689 1
   16353    15688    15710 1
   16354    15688    15711 1
   16355    15689    15690 1
   16356    15689    15712 1
   16357    15689    15713 1
   16358    15690    15691 1
   16359    15690    15714 1
   16360    15690    15715 1
   16361    15691    15692 1
   16362    15691    15716 1
   16363    15691    15717 1
   16364    15692    15693 1
   16365    15692    15718 1
   16366    15692    15719 1
   16367    15693    15694 1
   16368    15693    15720 1
   16369    15693    15721 1
   16370    15694    15695 1
   16371    15694    15722 1
   16372    15694    15723 1
   16373    15695    15696 1
   16374    15695    15724 1
   16375    15695    15725 1
   16376    15696    15697 1
   16377    15696    15726 1
   16378    15696    15727 1
   16379    15697    15728 1
   16380    15697    15729 1
   16381    15697    15730 1
   16382    15731    15732 1
   16383    15731    15738 1
   16384    15731    15754 1
   16385    15731    15803 1
   16386    15732    15733 1
   16387    15732    15736 1
   16388    15733    15734 1
   16389    15733    15737 1
   16390    15734    15735 1
   16391    15735    15736 1
   16392    15736    15742 1
   16393    15737    15738 1
   16394    15737    15741 1
   16395    15738    15739 1
   16396    15739    15740 1
   16397    15739    15743 1
   16398    15740    15741 1
   16399    15740    15752 1
   16400    15744    15745 1
   16401    15744    15752 1
   16402    15745    15746 1
   16403    15745    15753 1
   16404    15746    15747 1
   16405    15746    15856 1
   16406    15747    15748 1
   16407    15747    15751 1
   16408    15748    15749 1
   16409    15749    15750 1
   16410    15750    15751 1
   16411    15751    15752 1
   16412    15754    15755 1
   16413    15754    15770 1
   16414    15754    15771 1
   16415    15755    15756 1
   16416    15755    15772 1
   16417    15755    15773 1
   16418    15756    15757 1
   16419    15756    15774 1
   16420    15756    15775 1
   16421    15757    15758 1
   16422    15757    15776 1
   16423    15757    15777 1
   16424    15758    15759 1
   16425    15758    15778 1
   16426    15758    15779 1
   16427    15759    15760 1
   16428    15759    15780 1
   16429    15759    15781 1
   16430    15760    15761 1
   16431    15760    15782 1
   16432    15760    15783 1
   16433    15761    15762 1
   16434    15761    15784 1
   16435    15761    15785 1
   16436    15762    15763 1
   16437    15762    15786 1
   16438    15762    15787 1
   16439    15763    15764 1
   16440    15763    15788 1
   16441    15763    15789 1
   16442    15764    15765 1
   16443    15764    15790 1
   16444    15764    15791 1
   16445    15765    15766 1
   16446    15765    15792 1
   16447    15765    15793 1
   16448    15766    15767 1
   16449    15766    15794 1
   16450    15766    15795 1
   16451    15767    15768 1
   16452    15767    15796 1
   16453    15767    15797 1
   16454    15768    15769 1
   16455    15768    15798 1
   16456    15768    15799 1
   16457    15769    15800 1
   16458    15769    15801 1
   16459    15769    15802 1
   16460    15803    15804 1
   16461    15803    15819 1
   16462    15803    15820 1
   16463    15804    15805 1
   16464    15804    15821 1
   16465    15804    15822 1
   16466    15805    15806 1
   16467    15805    15823 1
   16468    15805    15824 1
   16469    15806    15807 1
   16470    15806    15825 1
   16471    15806    15826 1
   16472    15807    15808 1
   16473    15807    15827 1
   16474    15807    15828 1
   16475    15808    15809 1
   16476    15808    15829 1
   16477    15808    15830 1
   16478    15809    15810 1
   16479    15809    15831 1
   16480    15809    15832 1
   16481    15810    15811 1
   16482    15810    15833 1
   16483    15810    15834 1
   16484    15811    15812 1
   16485    15811    15835 1
   16486    15811    15836 1
   16487    15812    15813 1
   16488    15812    15837 1
   16489    15812    15838 1
   16490    15813    15814 1
   16491    15813    15839 1
   16492    15813    15840 1
   16493    15814    15815 1
   16494    15814    15841 1
   16495    15814    15842 1
   16496    15815    15816 1
   16497    15815    15843 1
   16498    15815    15844 1
   16499    15816    15817 1
   16500    15816    15845 1
   16501    15816    15846 1
   16502    15817    15818 1
   16503    15817    15847 1
   16504    15817    15848 1
   16505    15818    15849 1
   16506    15818    15850 1
   16507    15818    15851 1
   16508    15852    15853 1
   16509    15852    15859 1
   16510    15852    15875 1
   16511    15852    15924 1
   16512    15853    15854 1
   16513    15853    15857 1
   16514    15854    15855 1
   16515    15854    15858 1
   16516    15855    15856 1
   16517    15856    15857 1
   16518    15857    15863 1
   16519    15858    15859 1
   16520    15858    15862 1
   16521    15859    15860 1
   16522    15860    15861 1
   16523    15860    15864 1
   16524    15861    15862 1
   16525    15861    15873 1
   16526    15865    15866 1
   16527    15865    15873 1
   16528    15866    15867 1
   16529    15866    15874 1
   16530    15867    15868 1
   16531    15867    15977 1
   16532    15868    15869 1
   16533    15868    15872 1
   16534    15869    15870 1
   16535    15870    15871 1
   16536    15871    15872 1
   16537    15872    15873 1
   16538    15875    15876 1
   16539    15875    15891 1
   16540    15875    15892 1
   16541    15876    15877 1
   16542    15876    15893 1
   16543    15876    15894 1
   16544    15877    15878 1
   16545    15877    15895 1
   16546    15877    15896 1
   16547    15878    15879 1
   16548    15878    15897 1
   16549    15878    15898 1
   16550    15879    15880 1
   16551    15879    15899 1
   16552    15879    15900 1
   16553    15880    15881 1
   16554    15880    15901 1
   16555    15880    15902 1
   16556    15881    15882 1
   16557    15881    15903 1
   16558    15881    15904 1
   16559    15882    15883 1
   16560    15882    15905 1
   16561    15882    15906 1
   16562    15883    15884 1
   16563    15883    15907 1
   16564    15883    15908 1
   16565    15884    15885 1
   16566    15884    15909 1
   16567    15884    15910 1
   16568    15885    15886 1
   16569    15885    15911 1
   16570    15885    15912 1
   16571    15886    15887 1
   16572    15886    15913 1
   16573    15886    15914 1
   16574    15887    15888 1
   16575    15887    15915 1
   16576    15887    15916 1
   16577    15888    15889 1
   16578    15888    15917 1
   16579    15888    15918 1
   16580    15889    15890 1
   16581    15889    15919 1
   16582    15889    15920 1
   16583    15890    15921 1
   16584    15890    15922 1
   16585    15890    15923 1
   16586    15924    15925 1
   16587    15924    15940 1
   16588    15924    15941 1
   16589    15925    15926 1
   16590    15925    15942 1
   16591    15925    15943 1
   16592    15926    15927 1
   16593    15926    15944 1
   16594    15926    15945 1
   16595    15927    15928 1
   16596    15927    15946 1
   16597    15927    15947 1
   16598    15928    15929 1
   16599    15928    15948 1
   16600    15928    15949 1
   16601    15929    15930 1
   16602    15929    15950 1
   16603    15929    15951 1
   16604    15930    15931 1
   16605    15930    15952 1
   16606    15930    15953 1
   16607    15931    15932 1
   16608    15931    15954 1
   16609    15931    15955 1
   16610    15932    15933 1
   16611    15932    15956 1
   16612    15932    15957 1
   16613    15933    15934 1
   16614    15933    15958 1
   16615    15933    15959 1
   16616    15934    15935 1
   16617    15934    15960 1
   16618    15934    15961 1
   16619    15935    15936 1
   16620    15935    15962 1
   16621    15935    15963 1
   16622    15936    15937 1
   16623    15936    15964 1
   16624    15936    15965 1
   16625    15937    15938 1
   16626    15937    15966 1
   16627    15937    15967 1
   16628    15938    15939 1
   16629    15938    15968 1
   16630    15938    15969 1
   16631    15939    15970 1
   16632    15939    15971 1
   16633    15939    15972 1
   16634    15973    15974 1
   16635    15973    15980 1
   16636    15973    15996 1
   16637    15973    16045 1
   16638    15974    15975 1
   16639    15974    15978 1
   16640    15975    15976 1
   16641    15975    15979 1
   16642    15976    15977 1
   16643    15977    15978 1
   16644    15978    15984 1
   16645    15979    15980 1
   16646    15979    15983 1
   16647    15980    15981 1
   16648    15981    15982 1
   16649    15981    15985 1
   16650    15982    15983 1
   16651    15982    15994 1
   16652    15986    15987 1
   16653    15986    15994 1
   16654    15987    15988 1
   16655    15987    15995 1
   16656    15988    15989 1
   16657    15988    16098 1
   16658    15989    15990 1
   16659    15989    15993 1
   16660    15990    15991 1
   16661    15991    15992 1
   16662    15992    15993 1
   16663    15993    15994 1
   16664    15996    15997 1
   16665    15996    16012 1
   16666    15996    16013 1
   16667    15997    15998 1
   16668    15997    16014 1
   16669    15997    16015 1
   16670    15998    15999 1
   16671    15998    16016 1
   16672    15998    16017 1
   16673    15999    16000 1
   16674    15999    16018 1
   16675    15999    16019 1
   16676    16000    16001 1
   16677    16000    16020 1
   16678    16000    16021 1
   16679    16001    16002 1
   16680    16001    16022 1
   16681    16001    16023 1
   16682    16002    16003 1
   16683    16002    16024 1
   16684    16002    16025 1
   16685    16003    16004 1
   16686    16003    16026 1
   16687    16003    16027 1
   16688    16004    16005 1
   16689    16004    16028 1
   16690    16004    16029 1
   16691    16005    16006 1
   16692    16005    16030 1
   16693    16005    16031 1
   16694    16006    16007 1
   16695    16006    16032 1
   16696    16006    16033 1
   16697    16007    16008 1
   16698    16007    16034 1
   16699    16007    16035 1
   16700    16008    16009 1
   16701    16008    16036 1
   16702    16008    16037 1
   16703    16009    16010 1
   16704    16009    16038 1
   16705    16009    16039 1
   16706    16010    16011 1
   16707    16010    16040 1
   16708    16010    16041 1
   16709    16011    16042 1
   16710    16011    16043 1
   16711    16011    16044 1
   16712    16045    16046 1
   16713    16045    16061 1
   16714    16045    16062 1
   16715    16046    16047 1
   16716    16046    16063 1
   16717    16046    16064 1
   16718    16047    16048 1
   16719    16047    16065 1
   16720    16047    16066 1
   16721    16048    16049 1
   16722    16048    16067 1
   16723    16048    16068 1
   16724    16049    16050 1
   16725    16049    16069 1
   16726    16049    16070 1
   16727    16050    16051 1
   16728    16050    16071 1
   16729    16050    16072 1
   16730    16051    16052 1
   16731    16051    16073 1
   16732    16051    16074 1
   16733    16052    16053 1
   16734    16052    16075 1
   16735    16052    16076 1
   16736    16053    16054 1
   16737    16053    16077 1
   16738    16053    16078 1
   16739    16054    16055 1
   16740    16054    16079 1
   16741    16054    16080 1
   16742    16055    16056 1
   16743    16055    16081 1
   16744    16055    16082 1
   16745    16056    16057 1
   16746    16056    16083 1
   16747    16056    16084 1
   16748    16057    16058 1
   16749    16057    16085 1
   16750    16057    16086 1
   16751    16058    16059 1
   16752    16058    16087 1
   16753    16058    16088 1
   16754    16059    16060 1
   16755    16059    16089 1
   16756    16059    16090 1
   16757    16060    16091 1
   16758    16060    16092 1
   16759    16060    16093 1
   16760    16094    16095 1
   16761    16094    16101 1
   16762    16094    16117 1
   16763    16094    16166 1
   16764    16095    16096 1
   16765    16095    16099 1
   16766    16096    16097 1
   16767    16096    16100 1
   16768    16097    16098 1
   16769    16098    16099 1
   16770    16099    16105 1
   16771    16100    16101 1
   16772    16100    16104 1
   16773    16101    16102 1
   16774    16102    16103 1
   16775    16102    16106 1
   16776    16103    16104 1
   16777    16103    16115 1
   16778    16107    16108 1
   16779    16107    16115 1
   16780    16108    16109 1
   16781    16108    16116 1
   16782    16109    16110 1
   16783    16109    16219 1
   16784    16110    16111 1
   16785    16110    16114 1
   16786    16111    16112 1
   16787    16112    16113 1
   16788    16113    16114 1
   16789    16114    16115 1
   16790    16117    16118 1
   16791    16117    16133 1
   16792    16117    16134 1
   16793    16118    16119 1
   16794    16118    16135 1
   16795    16118    16136 1
   16796    16119    16120 1
   16797    16119    16137 1
   16798    16119    16138 1
   16799    16120    16121 1
   16800    16120    16139 1
   16801    16120    16140 1
   16802    16121    16122 1
   16803    16121    16141 1
   16804    16121    16142 1
   16805    16122    16123 1
   16806    16122    16143 1
   16807    16122    16144 1
   16808    16123    16124 1
   16809    16123    16145 1
   16810    16123    16146 1
   16811    16124    16125 1
   16812    16124    16147 1
   16813    16124    16148 1
   16814    16125    16126 1
   16815    16125    16149 1
   16816    16125    16150 1
   16817    16126    16127 1
   16818    16126    16151 1
   16819    16126    16152 1
   16820    16127    16128 1
   16821    16127    16153 1
   16822    16127    16154 1
   16823    16128    16129 1
   16824    16128    16155 1
   16825    16128    16156 1
   16826    16129    16130 1
   16827    16129    16157 1
   16828    16129    16158 1
   16829    16130    16131 1
   16830    16130    16159 1
   16831    16130    16160 1
   16832    16131    16132 1
   16833    16131    16161 1
   16834    16131    16162 1
   16835    16132    16163 1
   16836    16132    16164 1
   16837    16132    16165 1
   16838    16166    16167 1
   16839    16166    16182 1
   16840    16166    16183 1
   16841    16167    16168 1
   16842    16167    16184 1
   16843    16167    16185 1
   16844    16168    16169 1
   16845    16168    16186 1
   16846    16168    16187 1
   16847    16169    16170 1
   16848    16169    16188 1
   16849    16169    16189 1
   16850    16170    16171 1
   16851    16170    16190 1
   16852    16170    16191 1
   16853    16171    16172 1
   16854    16171    16192 1
   16855    16171    16193 1
   16856    16172    16173 1
   16857    16172    16194 1
   16858    16172    16195 1
   16859    16173    16174 1
   16860    16173    16196 1
   16861    16173    16197 1
   16862    16174    16175 1
   16863    16174    16198 1
   16864    16174    16199 1
   16865    16175    16176 1
   16866    16175    16200 1
   16867    16175    16201 1
   16868    16176    16177 1
   16869    16176    16202 1
   16870    16176    16203 1
   16871    16177    16178 1
   16872    16177    16204 1
   16873    16177    16205 1
   16874    16178    16179 1
   16875    16178    16206 1
   16876    16178    16207 1
   16877    16179    16180 1
   16878    16179    16208 1
   16879    16179    16209 1
   16880    16180    16181 1
   16881    16180    16210 1
   16882    16180    16211 1
   16883    16181    16212 1
   16884    16181    16213 1
   16885    16181    16214 1
   16886    16215    16216 1
   16887    16215    16222 1
   16888    16215    16238 1
   16889    16215    16287 1
   16890    16216    16217 1
   16891    16216    16220 1
   16892    16217    16218 1
   16893    16217    16221 1
   16894    16218    16219 1
   16895    16219    16220 1
   16896    16220    16226 1
   16897    16221    16222 1
   16898    16221    16225 1
   16899    16222    16223 1
   16900    16223    16224 1
   16901    16223    16227 1
   16902    16224    16225 1
   16903    16224    16236 1
   16904    16228    16229 1
   16905    16228    16236 1
   16906    16229    16230 1
   16907    16229    16237 1
   16908    16230    16231 1
   16909    16230    16340 1
   16910    16231    16232 1
   16911    16231    16235 1
   16912    16232    16233 1
   16913    16233    16234 1
   16914    16234    16235 1
   16915    16235    16236 1
   16916    16238    16239 1
   16917    16238    16254 1
   16918    16238    16255 1
   16919    16239    16240 1
   16920    16239    16256 1
   16921    16239    16257 1
   16922    16240    16241 1
   16923    16240    16258 1
   16924    16240    16259 1
   16925    16241    16242 1
   16926    16241    16260 1
   16927    16241    16261 1
   16928    16242    16243 1
   16929    16242    16262 1
   16930    16242    16263 1
   16931    16243    16244 1
   16932    16243    16264 1
   16933    16243    16265 1
   16934    16244    16245 1
   16935    16244    16266 1
   16936    16244    16267 1
   16937    16245    16246 1
   16938    16245    16268 1
   16939    16245    16269 1
   16940    16246    16247 1
   16941    16246    16270 1
   16942    16246    16271 1
   16943    16247    16248 1
   16944    16247    16272 1
   16945    16247    16273 1
   16946    16248    16249 1
   16947    16248    16274 1
   16948    16248    16275 1
   16949    16249    16250 1
   16950    16249    16276 1
   16951    16249    16277 1
   16952    16250    16251 1
   16953    16250    16278 1
   16954    16250    16279 1
   16955    16251    16252 1
   16956    16251    16280 1
   16957    16251    16281 1
   16958    16252    16253 1
   16959    16252    16282 1
   16960    16252    16283 1
   16961    16253    16284 1
   16962    16253    16285 1
   16963    16253    16286 1
   16964    16287    16288 1
   16965    16287    16303 1
   16966    16287    16304 1
   16967    16288    16289 1
   16968    16288    16305 1
   16969    16288    16306 1
   16970    16289    16290 1
   16971    16289    16307 1
   16972    16289    16308 1
   16973    16290    16291 1
   16974    16290    16309 1
   16975    16290    16310 1
   16976    16291    16292 1
   16977    16291    16311 1
   16978    16291    16312 1
   16979    16292    16293 1
   16980    16292    16313 1
   16981    16292    16314 1
   16982    16293    16294 1
   16983    16293    16315 1
   16984    16293    16316 1
   16985    16294    16295 1
   16986    16294    16317 1
   16987    16294    16318 1
   16988    16295    16296 1
   16989    16295    16319 1
   16990    16295    16320 1
   16991    16296    16297 1
   16992    16296    16321 1
   16993    16296    16322 1
   16994    16297    16298 1
   16995    16297    16323 1
   16996    16297    16324 1
   16997    16298    16299 1
   16998    16298    16325 1
   16999    16298    16326 1
   17000    16299    16300 1
   17001    16299    16327 1
   17002    16299    16328 1
   17003    16300    16301 1
   17004    16300    16329 1
   17005    16300    16330 1
   17006    16301    16302 1
   17007    16301    16331 1
   17008    16301    16332 1
   17009    16302    16333 1
   17010    16302    16334 1
   17011    16302    16335 1
   17012    16336    16337 1
   17013    16336    16343 1
   17014    16336    16359 1
   17015    16336    16408 1
   17016    16337    16338 1
   17017    16337    16341 1
   17018    16338    16339 1
   17019    16338    16342 1
   17020    16339    16340 1
   17021    16340    16341 1
   17022    16341    16347 1
   17023    16342    16343 1
   17024    16342    16346 1
   17025    16343    16344 1
   17026    16344    16345 1
   17027    16344    16348 1
   17028    16345    16346 1
   17029    16345    16357 1
   17030    16349    16350 1
   17031    16349    16357 1
   17032    16350    16351 1
   17033    16350    16358 1
   17034    16351    16352 1
   17035    16351    16461 1
   17036    16352    16353 1
   17037    16352    16356 1
   17038    16353    16354 1
   17039    16354    16355 1
   17040    16355    16356 1
   17041    16356    16357 1
   17042    16359    16360 1
   17043    16359    16375 1
   17044    16359    16376 1
   17045    16360    16361 1
   17046    16360    16377 1
   17047    16360    16378 1
   17048    16361    16362 1
   17049    16361    16379 1
   17050    16361    16380 1
   17051    16362    16363 1
   17052    16362    16381 1
   17053    16362    16382 1
   17054    16363    16364 1
   17055    16363    16383 1
   17056    16363    16384 1
   17057    16364    16365 1
   17058    16364    16385 1
   17059    16364    16386 1
   17060    16365    16366 1
   17061    16365    16387 1
   17062    16365    16388 1
   17063    16366    16367 1
   17064    16366    16389 1
   17065    16366    16390 1
   17066    16367    16368 1
   17067    16367    16391 1
   17068    16367    16392 1
   17069    16368    16369 1
   17070    16368    16393 1
   17071    16368    16394 1
   17072    16369    16370 1
   17073    16369    16395 1
   17074    16369    16396 1
   17075    16370    16371 1
   17076    16370    16397 1
   17077    16370    16398 1
   17078    16371    16372 1
   17079    16371    16399 1
   17080    16371    16400 1
   17081    16372    16373 1
   17082    16372    16401 1
   17083    16372    16402 1
   17084    16373    16374 1
   17085    16373    16403 1
   17086    16373    16404 1
   17087    16374    16405 1
   17088    16374    16406 1
   17089    16374    16407 1
   17090    16408    16409 1
   17091    16408    16424 1
   17092    16408    16425 1
   17093    16409    16410 1
   17094    16409    16426 1
   17095    16409    16427 1
   17096    16410    16411 1
   17097    16410    16428 1
   17098    16410    16429 1
   17099    16411    16412 1
   17100    16411    16430 1
   17101    16411    16431 1
   17102    16412    16413 1
   17103    16412    16432 1
   17104    16412    16433 1
   17105    16413    16414 1
   17106    16413    16434 1
   17107    16413    16435 1
   17108    16414    16415 1
   17109    16414    16436 1
   17110    16414    16437 1
   17111    16415    16416 1
   17112    16415    16438 1
   17113    16415    16439 1
   17114    16416    16417 1
   17115    16416    16440 1
   17116    16416    16441 1
   17117    16417    16418 1
   17118    16417    16442 1
   17119    16417    16443 1
   17120    16418    16419 1
   17121    16418    16444 1
   17122    16418    16445 1
   17123    16419    16420 1
   17124    16419    16446 1
   17125    16419    16447 1
   17126    16420    16421 1
   17127    16420    16448 1
   17128    16420    16449 1
   17129    16421    16422 1
   17130    16421    16450 1
   17131    16421    16451 1
   17132    16422    16423 1
   17133    16422    16452 1
   17134    16422    16453 1
   17135    16423    16454 1
   17136    16423    16455 1
   17137    16423    16456 1
   17138    16457    16458 1
   17139    16457    16464 1
   17140    16457    16480 1
   17141    16457    16529 1
   17142    16458    16459 1
   17143    16458    16462 1
   17144    16459    16460 1
   17145    16459    16463 1
   17146    16460    16461 1
   17147    16461    16462 1
   17148    16462    16468 1
   17149    16463    16464 1
   17150    16463    16467 1
   17151    16464    16465 1
   17152    16465    16466 1
   17153    16465    16469 1
   17154    16466    16467 1
   17155    16466    16478 1
   17156    16470    16471 1
   17157    16470    16478 1
   17158    16471    16472 1
   17159    16471    16479 1
   17160    16472    16473 1
   17161    16472    16582 1
   17162    16473    16474 1
   17163    16473    16477 1
   17164    16474    16475 1
   17165    16475    16476 1
   17166    16476    16477 1
   17167    16477    16478 1
   17168    16480    16481 1
   17169    16480    16496 1
   17170    16480    16497 1
   17171    16481    16482 1
   17172    16481    16498 1
   17173    16481    16499 1
   17174    16482    16483 1
   17175    16482    16500 1
   17176    16482    16501 1
   17177    16483    16484 1
   17178    16483    16502 1
   17179    16483    16503 1
   17180    16484    16485 1
   17181    16484    16504 1
   17182    16484    16505 1
   17183    16485    16486 1
   17184    16485    16506 1
   17185    16485    16507 1
   17186    16486    16487 1
   17187    16486    16508 1
   17188    16486    16509 1
   17189    16487    16488 1
   17190    16487    16510 1
   17191    16487    16511 1
   17192    16488    16489 1
   17193    16488    16512 1
   17194    16488    16513 1
   17195    16489    16490 1
   17196    16489    16514 1
   17197    16489    16515 1
   17198    16490    16491 1
   17199    16490    16516 1
   17200    16490    16517 1
   17201    16491    16492 1
   17202    16491    16518 1
   17203    16491    16519 1
   17204    16492    16493 1
   17205    16492    16520 1
   17206    16492    16521 1
   17207    16493    16494 1
   17208    16493    16522 1
   17209    16493    16523 1
   17210    16494    16495 1
   17211    16494    16524 1
   17212    16494    16525 1
   17213    16495    16526 1
   17214    16495    16527 1
   17215    16495    16528 1
   17216    16529    16530 1
   17217    16529    16545 1
   17218    16529    16546 1
   17219    16530    16531 1
   17220    16530    16547 1
   17221    16530    16548 1
   17222    16531    16532 1
   17223    16531    16549 1
   17224    16531    16550 1
   17225    16532    16533 1
   17226    16532    16551 1
   17227    16532    16552 1
   17228    16533    16534 1
   17229    16533    16553 1
   17230    16533    16554 1
   17231    16534    16535 1
   17232    16534    16555 1
   17233    16534    16556 1
   17234    16535    16536 1
   17235    16535    16557 1
   17236    16535    16558 1
   17237    16536    16537 1
   17238    16536    16559 1
   17239    16536    16560 1
   17240    16537    16538 1
   17241    16537    16561 1
   17242    16537    16562 1
   17243    16538    16539 1
   17244    16538    16563 1
   17245    16538    16564 1
   17246    16539    16540 1
   17247    16539    16565 1
   17248    16539    16566 1
   17249    16540    16541 1
   17250    16540    16567 1
   17251    16540    16568 1
   17252    16541    16542 1
   17253    16541    16569 1
   17254    16541    16570 1
   17255    16542    16543 1
   17256    16542    16571 1
   17257    16542    16572 1
   17258    16543    16544 1
   17259    16543    16573 1
   17260    16543    16574 1
   17261    16544    16575 1
   17262    16544    16576 1
   17263    16544    16577 1
   17264    16578    16579 1
   17265    16578    16585 1
   17266    16578    16601 1
   17267    16578    16650 1
   17268    16579    16580 1
   17269    16579    16583 1
   17270    16580    16581 1
   17271    16580    16584 1
   17272    16581    16582 1
   17273    16582    16583 1
   17274    16583    16589 1
   17275    16584    16585 1
   17276    16584    16588 1
   17277    16585    16586 1
   17278    16586    16587 1
   17279    16586    16590 1
   17280    16587    16588 1
   17281    16587    16599 1
   17282    16591    16592 1
   17283    16591    16599 1
   17284    16592    16593 1
   17285    16592    16600 1
   17286    16593    16594 1
   17287    16593    16703 1
   17288    16594    16595 1
   17289    16594    16598 1
   17290    16595    16596 1
   17291    16596    16597 1
   17292    16597    16598 1
   17293    16598    16599 1
   17294    16601    16602 1
   17295    16601    16617 1
   17296    16601    16618 1
   17297    16602    16603 1
   17298    16602    16619 1
   17299    16602    16620 1
   17300    16603    16604 1
   17301    16603    16621 1
   17302    16603    16622 1
   17303    16604    16605 1
   17304    16604    16623 1
   17305    16604    16624 1
   17306    16605    16606 1
   17307    16605    16625 1
   17308    16605    16626 1
   17309    16606    16607 1
   17310    16606    16627 1
   17311    16606    16628 1
   17312    16607    16608 1
   17313    16607    16629 1
   17314    16607    16630 1
   17315    16608    16609 1
   17316    16608    16631 1
   17317    16608    16632 1
   17318    16609    16610 1
   17319    16609    16633 1
   17320    16609    16634 1
   17321    16610    16611 1
   17322    16610    16635 1
   17323    16610    16636 1
   17324    16611    16612 1
   17325    16611    16637 1
   17326    16611    16638 1
   17327    16612    16613 1
   17328    16612    16639 1
   17329    16612    16640 1
   17330    16613    16614 1
   17331    16613    16641 1
   17332    16613    16642 1
   17333    16614    16615 1
   17334    16614    16643 1
   17335    16614    16644 1
   17336    16615    16616 1
   17337    16615    16645 1
   17338    16615    16646 1
   17339    16616    16647 1
   17340    16616    16648 1
   17341    16616    16649 1
   17342    16650    16651 1
   17343    16650    16666 1
   17344    16650    16667 1
   17345    16651    16652 1
   17346    16651    16668 1
   17347    16651    16669 1
   17348    16652    16653 1
   17349    16652    16670 1
   17350    16652    16671 1
   17351    16653    16654 1
   17352    16653    16672 1
   17353    16653    16673 1
   17354    16654    16655 1
   17355    16654    16674 1
   17356    16654    16675 1
   17357    16655    16656 1
   17358    16655    16676 1
   17359    16655    16677 1
   17360    16656    16657 1
   17361    16656    16678 1
   17362    16656    16679 1
   17363    16657    16658 1
   17364    16657    16680 1
   17365    16657    16681 1
   17366    16658    16659 1
   17367    16658    16682 1
   17368    16658    16683 1
   17369    16659    16660 1
   17370    16659    16684 1
   17371    16659    16685 1
   17372    16660    16661 1
   17373    16660    16686 1
   17374    16660    16687 1
   17375    16661    16662 1
   17376    16661    16688 1
   17377    16661    16689 1
   17378    16662    16663 1
   17379    16662    16690 1
   17380    16662    16691 1
   17381    16663    16664 1
   17382    16663    16692 1
   17383    16663    16693 1
   17384    16664    16665 1
   17385    16664    16694 1
   17386    16664    16695 1
   17387    16665    16696 1
   17388    16665    16697 1
   17389    16665    16698 1
   17390    16699    16700 1
   17391    16699    16706 1
   17392    16699    16722 1
   17393    16699    16771 1
   17394    16700    16701 1
   17395    16700    16704 1
   17396    16701    16702 1
   17397    16701    16705 1
   17398    16702    16703 1
   17399    16703    16704 1
   17400    16704    16710 1
   17401    16705    16706 1
   17402    16705    16709 1
   17403    16706    16707 1
   17404    16707    16708 1
   17405    16707    16711 1
   17406    16708    16709 1
   17407    16708    16720 1
   17408    16712    16713 1
   17409    16712    16720 1
   17410    16713    16714 1
   17411    16713    16721 1
   17412    16714    16715 1
   17413    16714    16824 1
   17414    16715    16716 1
   17415    16715    16719 1
   17416    16716    16717 1
   17417    16717    16718 1
   17418    16718    16719 1
   17419    16719    16720 1
   17420    16722    16723 1
   17421    16722    16738 1
   17422    16722    16739 1
   17423    16723    16724 1
   17424    16723    16740 1
   17425    16723    16741 1
   17426    16724    16725 1
   17427    16724    16742 1
   17428    16724    16743 1
   17429    16725    16726 1
   17430    16725    16744 1
   17431    16725    16745 1
   17432    16726    16727 1
   17433    16726    16746 1
   17434    16726    16747 1
   17435    16727    16728 1
   17436    16727    16748 1
   17437    16727    16749 1
   17438    16728    16729 1
   17439    16728    16750 1
   17440    16728    16751 1
   17441    16729    16730 1
   17442    16729    16752 1
   17443    16729    16753 1
   17444    16730    16731 1
   17445    16730    16754 1
   17446    16730    16755 1
   17447    16731    16732 1
   17448    16731    16756 1
   17449    16731    16757 1
   17450    16732    16733 1
   17451    16732    16758 1
   17452    16732    16759 1
   17453    16733    16734 1
   17454    16733    16760 1
   17455    16733    16761 1
   17456    16734    16735 1
   17457    16734    16762 1
   17458    16734    16763 1
   17459    16735    16736 1
   17460    16735    16764 1
   17461    16735    16765 1
   17462    16736    16737 1
   17463    16736    16766 1
   17464    16736    16767 1
   17465    16737    16768 1
   17466    16737    16769 1
   17467    16737    16770 1
   17468    16771    16772 1
   17469    16771    16787 1
   17470    16771    16788 1
   17471    16772    16773 1
   17472    16772    16789 1
   17473    16772    16790 1
   17474    16773    16774 1
   17475    16773    16791 1
   17476    16773    16792 1
   17477    16774    16775 1
   17478    16774    16793 1
   17479    16774    16794 1
   17480    16775    16776 1
   17481    16775    16795 1
   17482    16775    16796 1
   17483    16776    16777 1
   17484    16776    16797 1
   17485    16776    16798 1
   17486    16777    16778 1
   17487    16777    16799 1
   17488    16777    16800 1
   17489    16778    16779 1
   17490    16778    16801 1
   17491    16778    16802 1
   17492    16779    16780 1
   17493    16779    16803 1
   17494    16779    16804 1
   17495    16780    16781 1
   17496    16780    16805 1
   17497    16780    16806 1
   17498    16781    16782 1
   17499    16781    16807 1
   17500    16781    16808 1
   17501    16782    16783 1
   17502    16782    16809 1
   17503    16782    16810 1
   17504    16783    16784 1
   17505    16783    16811 1
   17506    16783    16812 1
   17507    16784    16785 1
   17508    16784    16813 1
   17509    16784    16814 1
   17510    16785    16786 1
   17511    16785    16815 1
   17512    16785    16816 1
   17513    16786    16817 1
   17514    16786    16818 1
   17515    16786    16819 1
   17516    16820    16821 1
   17517    16820    16827 1
   17518    16820    16843 1
   17519    16820    16892 1
   17520    16821    16822 1
   17521    16821    16825 1
   17522    16822    16823 1
   17523    16822    16826 1
   17524    16823    16824 1
   17525    16824    16825 1
   17526    16825    16831 1
   17527    16826    16827 1
   17528    16826    16830 1
   17529    16827    16828 1
   17530    16828    16829 1
   17531    16828    16832 1
   17532    16829    16830 1
   17533    16829    16841 1
   17534    16833    16834 1
   17535    16833    16841 1
   17536    16834    16835 1
   17537    16834    16842 1
   17538    16835    16836 1
   17539    16835    16945 1
   17540    16836    16837 1
   17541    16836    16840 1
   17542    16837    16838 1
   17543    16838    16839 1
   17544    16839    16840 1
   17545    16840    16841 1
   17546    16843    16844 1
   17547    16843    16859 1
   17548    16843    16860 1
   17549    16844    16845 1
   17550    16844    16861 1
   17551    16844    16862 1
   17552    16845    16846 1
   17553    16845    16863 1
   17554    16845    16864 1
   17555    16846    16847 1
   17556    16846    16865 1
   17557    16846    16866 1
   17558    16847    16848 1
   17559    16847    16867 1
   17560    16847    16868 1
   17561    16848    16849 1
   17562    16848    16869 1
   17563    16848    16870 1
   17564    16849    16850 1
   17565    16849    16871 1
   17566    16849    16872 1
   17567    16850    16851 1
   17568    16850    16873 1
   17569    16850    16874 1
   17570    16851    16852 1
   17571    16851    16875 1
   17572    16851    16876 1
   17573    16852    16853 1
   17574    16852    16877 1
   17575    16852    16878 1
   17576    16853    16854 1
   17577    16853    16879 1
   17578    16853    16880 1
   17579    16854    16855 1
   17580    16854    16881 1
   17581    16854    16882 1
   17582    16855    16856 1
   17583    16855    16883 1
   17584    16855    16884 1
   17585    16856    16857 1
   17586    16856    16885 1
   17587    16856    16886 1
   17588    16857    16858 1
   17589    16857    16887 1
   17590    16857    16888 1
   17591    16858    16889 1
   17592    16858    16890 1
   17593    16858    16891 1
   17594    16892    16893 1
   17595    16892    16908 1
   17596    16892    16909 1
   17597    16893    16894 1
   17598    16893    16910 1
   17599    16893    16911 1
   17600    16894    16895 1
   17601    16894    16912 1
   17602    16894    16913 1
   17603    16895    16896 1
   17604    16895    16914 1
   17605    16895    16915 1
   17606    16896    16897 1
   17607    16896    16916 1
   17608    16896    16917 1
   17609    16897    16898 1
   17610    16897    16918 1
   17611    16897    16919 1
   17612    16898    16899 1
   17613    16898    16920 1
   17614    16898    16921 1
   17615    16899    16900 1
   17616    16899    16922 1
   17617    16899    16923 1
   17618    16900    16901 1
   17619    16900    16924 1
   17620    16900    16925 1
   17621    16901    16902 1
   17622    16901    16926 1
   17623    16901    16927 1
   17624    16902    16903 1
   17625    16902    16928 1
   17626    16902    16929 1
   17627    16903    16904 1
   17628    16903    16930 1
   17629    16903    16931 1
   17630    16904    16905 1
   17631    16904    16932 1
   17632    16904    16933 1
   17633    16905    16906 1
   17634    16905    16934 1
   17635    16905    16935 1
   17636    16906    16907 1
   17637    16906    16936 1
   17638    16906    16937 1
   17639    16907    16938 1
   17640    16907    16939 1
   17641    16907    16940 1
   17642    16941    16942 1
   17643    16941    16948 1
   17644    16941    16964 1
   17645    16941    17013 1
   17646    16942    16943 1
   17647    16942    16946 1
   17648    16943    16944 1
   17649    16943    16947 1
   17650    16944    16945 1
   17651    16945    16946 1
   17652    16946    16952 1
   17653    16947    16948 1
   17654    16947    16951 1
   17655    16948    16949 1
   17656    16949    16950 1
   17657    16949    16953 1
   17658    16950    16951 1
   17659    16950    16962 1
   17660    16954    16955 1
   17661    16954    16962 1
   17662    16955    16956 1
   17663    16955    16963 1
   17664    16956    16957 1
   17665    16956    17066 1
   17666    16957    16958 1
   17667    16957    16961 1
   17668    16958    16959 1
   17669    16959    16960 1
   17670    16960    16961 1
   17671    16961    16962 1
   17672    16964    16965 1
   17673    16964    16980 1
   17674    16964    16981 1
   17675    16965    16966 1
   17676    16965    16982 1
   17677    16965    16983 1
   17678    16966    16967 1
   17679    16966    16984 1
   17680    16966    16985 1
   17681    16967    16968 1
   17682    16967    16986 1
   17683    16967    16987 1
   17684    16968    16969 1
   17685    16968    16988 1
   17686    16968    16989 1
   17687    16969    16970 1
   17688    16969    16990 1
   17689    16969    16991 1
   17690    16970    16971 1
   17691    16970    16992 1
   17692    16970    16993 1
   17693    16971    16972 1
   17694    16971    16994 1
   17695    16971    16995 1
   17696    16972    16973 1
   17697    16972    16996 1
   17698    16972    16997 1
   17699    16973    16974 1
   17700    16973    16998 1
   17701    16973    16999 1
   17702    16974    16975 1
   17703    16974    17000 1
   17704    16974    17001 1
   17705    16975    16976 1
   17706    16975    17002 1
   17707    16975    17003 1
   17708    16976    16977 1
   17709    16976    17004 1
   17710    16976    17005 1
   17711    16977    16978 1
   17712    16977    17006 1
   17713    16977    17007 1
   17714    16978    16979 1
   17715    16978    17008 1
   17716    16978    17009 1
   17717    16979    17010 1
   17718    16979    17011 1
   17719    16979    17012 1
   17720    17013    17014 1
   17721    17013    17029 1
   17722    17013    17030 1
   17723    17014    17015 1
   17724    17014    17031 1
   17725    17014    17032 1
   17726    17015    17016 1
   17727    17015    17033 1
   17728    17015    17034 1
   17729    17016    17017 1
   17730    17016    17035 1
   17731    17016    17036 1
   17732    17017    17018 1
   17733    17017    17037 1
   17734    17017    17038 1
   17735    17018    17019 1
   17736    17018    17039 1
   17737    17018    17040 1
   17738    17019    17020 1
   17739    17019    17041 1
   17740    17019    17042 1
   17741    17020    17021 1
   17742    17020    17043 1
   17743    17020    17044 1
   17744    17021    17022 1
   17745    17021    17045 1
   17746    17021    17046 1
   17747    17022    17023 1
   17748    17022    17047 1
   17749    17022    17048 1
   17750    17023    17024 1
   17751    17023    17049 1
   17752    17023    17050 1
   17753    17024    17025 1
   17754    17024    17051 1
   17755    17024    17052 1
   17756    17025    17026 1
   17757    17025    17053 1
   17758    17025    17054 1
   17759    17026    17027 1
   17760    17026    17055 1
   17761    17026    17056 1
   17762    17027    17028 1
   17763    17027    17057 1
   17764    17027    17058 1
   17765    17028    17059 1
   17766    17028    17060 1
   17767    17028    17061 1
   17768    17062    17063 1
   17769    17062    17069 1
   17770    17062    17085 1
   17771    17062    17134 1
   17772    17063    17064 1
   17773    17063    17067 1
   17774    17064    17065 1
   17775    17064    17068 1
   17776    17065    17066 1
   17777    17066    17067 1
   17778    17067    17073 1
   17779    17068    17069 1
   17780    17068    17072 1
   17781    17069    17070 1
   17782    17070    17071 1
   17783    17070    17074 1
   17784    17071    17072 1
   17785    17071    17083 1
   17786    17075    17076 1
   17787    17075    17083 1
   17788    17076    17077 1
   17789    17076    17084 1
   17790    17077    17078 1
   17791    17077    17187 1
   17792    17078    17079 1
   17793    17078    17082 1
   17794    17079    17080 1
   17795    17080    17081 1
   17796    17081    17082 1
   17797    17082    17083 1
   17798    17085    17086 1
   17799    17085    17101 1
   17800    17085    17102 1
   17801    17086    17087 1
   17802    17086    17103 1
   17803    17086    17104 1
   17804    17087    17088 1
   17805    17087    17105 1
   17806    17087    17106 1
   17807    17088    17089 1
   17808    17088    17107 1
   17809    17088    17108 1
   17810    17089    17090 1
   17811    17089    17109 1
   17812    17089    17110 1
   17813    17090    17091 1
   17814    17090    17111 1
   17815    17090    17112 1
   17816    17091    17092 1
   17817    17091    17113 1
   17818    17091    17114 1
   17819    17092    17093 1
   17820    17092    17115 1
   17821    17092    17116 1
   17822    17093    17094 1
   17823    17093    17117 1
   17824    17093    17118 1
   17825    17094    17095 1
   17826    17094    17119 1
   17827    17094    17120 1
   17828    17095    17096 1
   17829    17095    17121 1
   17830    17095    17122 1
   17831    17096    17097 1
   17832    17096    17123 1
   17833    17096    17124 1
   17834    17097    17098 1
   17835    17097    17125 1
   17836    17097    17126 1
   17837    17098    17099 1
   17838    17098    17127 1
   17839    17098    17128 1
   17840    17099    17100 1
   17841    17099    17129 1
   17842    17099    17130 1
   17843    17100    17131 1
   17844    17100    17132 1
   17845    17100    17133 1
   17846    17134    17135 1
   17847    17134    17150 1
   17848    17134    17151 1
   17849    17135    17136 1
   17850    17135    17152 1
   17851    17135    17153 1
   17852    17136    17137 1
   17853    17136    17154 1
   17854    17136    17155 1
   17855    17137    17138 1
   17856    17137    17156 1
   17857    17137    17157 1
   17858    17138    17139 1
   17859    17138    17158 1
   17860    17138    17159 1
   17861    17139    17140 1
   17862    17139    17160 1
   17863    17139    17161 1
   17864    17140    17141 1
   17865    17140    17162 1
   17866    17140    17163 1
   17867    17141    17142 1
   17868    17141    17164 1
   17869    17141    17165 1
   17870    17142    17143 1
   17871    17142    17166 1
   17872    17142    17167 1
   17873    17143    17144 1
   17874    17143    17168 1
   17875    17143    17169 1
   17876    17144    17145 1
   17877    17144    17170 1
   17878    17144    17171 1
   17879    17145    17146 1
   17880    17145    17172 1
   17881    17145    17173 1
   17882    17146    17147 1
   17883    17146    17174 1
   17884    17146    17175 1
   17885    17147    17148 1
   17886    17147    17176 1
   17887    17147    17177 1
   17888    17148    17149 1
   17889    17148    17178 1
   17890    17148    17179 1
   17891    17149    17180 1
   17892    17149    17181 1
   17893    17149    17182 1
   17894    17183    17184 1
   17895    17183    17190 1
   17896    17183    17206 1
   17897    17183    17255 1
   17898    17184    17185 1
   17899    17184    17188 1
   17900    17185    17186 1
   17901    17185    17189 1
   17902    17186    17187 1
   17903    17187    17188 1
   17904    17188    17194 1
   17905    17189    17190 1
   17906    17189    17193 1
   17907    17190    17191 1
   17908    17191    17192 1
   17909    17191    17195 1
   17910    17192    17193 1
   17911    17192    17204 1
   17912    17196    17197 1
   17913    17196    17204 1
   17914    17197    17198 1
   17915    17197    17205 1
   17916    17198    17199 1
   17917    17198    17308 1
   17918    17199    17200 1
   17919    17199    17203 1
   17920    17200    17201 1
   17921    17201    17202 1
   17922    17202    17203 1
   17923    17203    17204 1
   17924    17206    17207 1
   17925    17206    17222 1
   17926    17206    17223 1
   17927    17207    17208 1
   17928    17207    17224 1
   17929    17207    17225 1
   17930    17208    17209 1
   17931    17208    17226 1
   17932    17208    17227 1
   17933    17209    17210 1
   17934    17209    17228 1
   17935    17209    17229 1
   17936    17210    17211 1
   17937    17210    17230 1
   17938    17210    17231 1
   17939    17211    17212 1
   17940    17211    17232 1
   17941    17211    17233 1
   17942    17212    17213 1
   17943    17212    17234 1
   17944    17212    17235 1
   17945    17213    17214 1
   17946    17213    17236 1
   17947    17213    17237 1
   17948    17214    17215 1
   17949    17214    17238 1
   17950    17214    17239 1
   17951    17215    17216 1
   17952    17215    17240 1
   17953    17215    17241 1
   17954    17216    17217 1
   17955    17216    17242 1
   17956    17216    17243 1
   17957    17217    17218 1
   17958    17217    17244 1
   17959    17217    17245 1
   17960    17218    17219 1
   17961    17218    17246 1
   17962    17218    17247 1
   17963    17219    17220 1
   17964    17219    17248 1
   17965    17219    17249 1
   17966    17220    17221 1
   17967    17220    17250 1
   17968    17220    17251 1
   17969    17221    17252 1
   17970    17221    17253 1
   17971    17221    17254 1
   17972    17255    17256 1
   17973    17255    17271 1
   17974    17255    17272 1
   17975    17256    17257 1
   17976    17256    17273 1
   17977    17256    17274 1
   17978    17257    17258 1
   17979    17257    17275 1
   17980    17257    17276 1
   17981    17258    17259 1
   17982    17258    17277 1
   17983    17258    17278 1
   17984    17259    17260 1
   17985    17259    17279 1
   17986    17259    17280 1
   17987    17260    17261 1
   17988    17260    17281 1
   17989    17260    17282 1
   17990    17261    17262 1
   17991    17261    17283 1
   17992    17261    17284 1
   17993    17262    17263 1
   17994    17262    17285 1
   17995    17262    17286 1
   17996    17263    17264 1
   17997    17263    17287 1
   17998    17263    17288 1
   17999    17264    17265 1
   18000    17264    17289 1
   18001    17264    17290 1
   18002    17265    17266 1
   18003    17265    17291 1
   18004    17265    17292 1
   18005    17266    17267 1
   18006    17266    17293 1
   18007    17266    17294 1
   18008    17267    17268 1
   18009    17267    17295 1
   18010    17267    17296 1
   18011    17268    17269 1
   18012    17268    17297 1
   18013    17268    17298 1
   18014    17269    17270 1
   18015    17269    17299 1
   18016    17269    17300 1
   18017    17270    17301 1
   18018    17270    17302 1
   18019    17270    17303 1
   18020    17304    17305 1
   18021    17304    17311 1
   18022    17304    17327 1
   18023    17304    17376 1
   18024    17305    17306 1
   18025    17305    17309 1
   18026    17306    17307 1
   18027    17306    17310 1
   18028    17307    17308 1
   18029    17308    17309 1
   18030    17309    17315 1
   18031    17310    17311 1
   18032    17310    17314 1
   18033    17311    17312 1
   18034    17312    17313 1
   18035    17312    17316 1
   18036    17313    17314 1
   18037    17313    17325 1
   18038    17317    17318 1
   18039    17317    17325 1
   18040    17318    17319 1
   18041    17318    17326 1
   18042    17319    17320 1
   18043    17319    17429 1
   18044    17320    17321 1
   18045    17320    17324 1
   18046    17321    17322 1
   18047    17322    17323 1
   18048    17323    17324 1
   18049    17324    17325 1
   18050    17327    17328 1
   18051    17327    17343 1
   18052    17327    17344 1
   18053    17328    17329 1
   18054    17328    17345 1
   18055    17328    17346 1
   18056    17329    17330 1
   18057    17329    17347 1
   18058    17329    17348 1
   18059    17330    17331 1
   18060    17330    17349 1
   18061    17330    17350 1
   18062    17331    17332 1
   18063    17331    17351 1
   18064    17331    17352 1
   18065    17332    17333 1
   18066    17332    17353 1
   18067    17332    17354 1
   18068    17333    17334 1
   18069    17333    17355 1
   18070    17333    17356 1
   18071    17334    17335 1
   18072    17334    17357 1
   18073    17334    17358 1
   18074    17335    17336 1
   18075    17335    17359 1
   18076    17335    17360 1
   18077    17336    17337 1
   18078    17336    17361 1
   18079    17336    17362 1
   18080    17337    17338 1
   18081    17337    17363 1
   18082    17337    17364 1
   18083    17338    17339 1
   18084    17338    17365 1
   18085    17338    17366 1
   18086    17339    17340 1
   18087    17339    17367 1
   18088    17339    17368 1
   18089    17340    17341 1
   18090    17340    17369 1
   18091    17340    17370 1
   18092    17341    17342 1
   18093    17341    17371 1
   18094    17341    17372 1
   18095    17342    17373 1
   18096    17342    17374 1
   18097    17342    17375 1
   18098    17376    17377 1
   18099    17376    17392 1
   18100    17376    17393 1
   18101    17377    17378 1
   18102    17377    17394 1
   18103    17377    17395 1
   18104    17378    17379 1
   18105    17378    17396 1
   18106    17378    17397 1
   18107    17379    17380 1
   18108    17379    17398 1
   18109    17379    17399 1
   18110    17380    17381 1
   18111    17380    17400 1
   18112    17380    17401 1
   18113    17381    17382 1
   18114    17381    17402 1
   18115    17381    17403 1
   18116    17382    17383 1
   18117    17382    17404 1
   18118    17382    17405 1
   18119    17383    17384 1
   18120    17383    17406 1
   18121    17383    17407 1
   18122    17384    17385 1
   18123    17384    17408 1
   18124    17384    17409 1
   18125    17385    17386 1
   18126    17385    17410 1
   18127    17385    17411 1
   18128    17386    17387 1
   18129    17386    17412 1
   18130    17386    17413 1
   18131    17387    17388 1
   18132    17387    17414 1
   18133    17387    17415 1
   18134    17388    17389 1
   18135    17388    17416 1
   18136    17388    17417 1
   18137    17389    17390 1
   18138    17389    17418 1
   18139    17389    17419 1
   18140    17390    17391 1
   18141    17390    17420 1
   18142    17390    17421 1
   18143    17391    17422 1
   18144    17391    17423 1
   18145    17391    17424 1
   18146    17425    17426 1
   18147    17425    17432 1
   18148    17425    17448 1
   18149    17425    17497 1
   18150    17426    17427 1
   18151    17426    17430 1
   18152    17427    17428 1
   18153    17427    17431 1
   18154    17428    17429 1
   18155    17429    17430 1
   18156    17430    17436 1
   18157    17431    17432 1
   18158    17431    17435 1
   18159    17432    17433 1
   18160    17433    17434 1
   18161    17433    17437 1
   18162    17434    17435 1
   18163    17434    17446 1
   18164    17438    17439 1
   18165    17438    17446 1
   18166    17439    17440 1
   18167    17439    17447 1
   18168    17440    17441 1
   18169    17440    17550 1
   18170    17441    17442 1
   18171    17441    17445 1
   18172    17442    17443 1
   18173    17443    17444 1
   18174    17444    17445 1
   18175    17445    17446 1
   18176    17448    17449 1
   18177    17448    17464 1
   18178    17448    17465 1
   18179    17449    17450 1
   18180    17449    17466 1
   18181    17449    17467 1
   18182    17450    17451 1
   18183    17450    17468 1
   18184    17450    17469 1
   18185    17451    17452 1
   18186    17451    17470 1
   18187    17451    17471 1
   18188    17452    17453 1
   18189    17452    17472 1
   18190    17452    17473 1
   18191    17453    17454 1
   18192    17453    17474 1
   18193    17453    17475 1
   18194    17454    17455 1
   18195    17454    17476 1
   18196    17454    17477 1
   18197    17455    17456 1
   18198    17455    17478 1
   18199    17455    17479 1
   18200    17456    17457 1
   18201    17456    17480 1
   18202    17456    17481 1
   18203    17457    17458 1
   18204    17457    17482 1
   18205    17457    17483 1
   18206    17458    17459 1
   18207    17458    17484 1
   18208    17458    17485 1
   18209    17459    17460 1
   18210    17459    17486 1
   18211    17459    17487 1
   18212    17460    17461 1
   18213    17460    17488 1
   18214    17460    17489 1
   18215    17461    17462 1
   18216    17461    17490 1
   18217    17461    17491 1
   18218    17462    17463 1
   18219    17462    17492 1
   18220    17462    17493 1
   18221    17463    17494 1
   18222    17463    17495 1
   18223    17463    17496 1
   18224    17497    17498 1
   18225    17497    17513 1
   18226    17497    17514 1
   18227    17498    17499 1
   18228    17498    17515 1
   18229    17498    17516 1
   18230    17499    17500 1
   18231    17499    17517 1
   18232    17499    17518 1
   18233    17500    17501 1
   18234    17500    17519 1
   18235    17500    17520 1
   18236    17501    17502 1
   18237    17501    17521 1
   18238    17501    17522 1
   18239    17502    17503 1
   18240    17502    17523 1
   18241    17502    17524 1
   18242    17503    17504 1
   18243    17503    17525 1
   18244    17503    17526 1
   18245    17504    17505 1
   18246    17504    17527 1
   18247    17504    17528 1
   18248    17505    17506 1
   18249    17505    17529 1
   18250    17505    17530 1
   18251    17506    17507 1
   18252    17506    17531 1
   18253    17506    17532 1
   18254    17507    17508 1
   18255    17507    17533 1
   18256    17507    17534 1
   18257    17508    17509 1
   18258    17508    17535 1
   18259    17508    17536 1
   18260    17509    17510 1
   18261    17509    17537 1
   18262    17509    17538 1
   18263    17510    17511 1
   18264    17510    17539 1
   18265    17510    17540 1
   18266    17511    17512 1
   18267    17511    17541 1
   18268    17511    17542 1
   18269    17512    17543 1
   18270    17512    17544 1
   18271    17512    17545 1
   18272    17546    17547 1
   18273    17546    17553 1
   18274    17546    17569 1
   18275    17546    17618 1
   18276    17547    17548 1
   18277    17547    17551 1
   18278    17548    17549 1
   18279    17548    17552 1
   18280    17549    17550 1
   18281    17550    17551 1
   18282    17551    17557 1
   18283    17552    17553 1
   18284    17552    17556 1
   18285    17553    17554 1
   18286    17554    17555 1
   18287    17554    17558 1
   18288    17555    17556 1
   18289    17555    17567 1
   18290    17559    17560 1
   18291    17559    17567 1
   18292    17560    17561 1
   18293    17560    17568 1
   18294    17561    17562 1
   18295    17561    17671 1
   18296    17562    17563 1
   18297    17562    17566 1
   18298    17563    17564 1
   18299    17564    17565 1
   18300    17565    17566 1
   18301    17566    17567 1
   18302    17569    17570 1
   18303    17569    17585 1
   18304    17569    17586 1
   18305    17570    17571 1
   18306    17570    17587 1
   18307    17570    17588 1
   18308    17571    17572 1
   18309    17571    17589 1
   18310    17571    17590 1
   18311    17572    17573 1
   18312    17572    17591 1
   18313    17572    17592 1
   18314    17573    17574 1
   18315    17573    17593 1
   18316    17573    17594 1
   18317    17574    17575 1
   18318    17574    17595 1
   18319    17574    17596 1
   18320    17575    17576 1
   18321    17575    17597 1
   18322    17575    17598 1
   18323    17576    17577 1
   18324    17576    17599 1
   18325    17576    17600 1
   18326    17577    17578 1
   18327    17577    17601 1
   18328    17577    17602 1
   18329    17578    17579 1
   18330    17578    17603 1
   18331    17578    17604 1
   18332    17579    17580 1
   18333    17579    17605 1
   18334    17579    17606 1
   18335    17580    17581 1
   18336    17580    17607 1
   18337    17580    17608 1
   18338    17581    17582 1
   18339    17581    17609 1
   18340    17581    17610 1
   18341    17582    17583 1
   18342    17582    17611 1
   18343    17582    17612 1
   18344    17583    17584 1
   18345    17583    17613 1
   18346    17583    17614 1
   18347    17584    17615 1
   18348    17584    17616 1
   18349    17584    17617 1
   18350    17618    17619 1
   18351    17618    17634 1
   18352    17618    17635 1
   18353    17619    17620 1
   18354    17619    17636 1
   18355    17619    17637 1
   18356    17620    17621 1
   18357    17620    17638 1
   18358    17620    17639 1
   18359    17621    17622 1
   18360    17621    17640 1
   18361    17621    17641 1
   18362    17622    17623 1
   18363    17622    17642 1
   18364    17622    17643 1
   18365    17623    17624 1
   18366    17623    17644 1
   18367    17623    17645 1
   18368    17624    17625 1
   18369    17624    17646 1
   18370    17624    17647 1
   18371    17625    17626 1
   18372    17625    17648 1
   18373    17625    17649 1
   18374    17626    17627 1
   18375    17626    17650 1
   18376    17626    17651 1
   18377    17627    17628 1
   18378    17627    17652 1
   18379    17627    17653 1
   18380    17628    17629 1
   18381    17628    17654 1
   18382    17628    17655 1
   18383    17629    17630 1
   18384    17629    17656 1
   18385    17629    17657 1
   18386    17630    17631 1
   18387    17630    17658 1
   18388    17630    17659 1
   18389    17631    17632 1
   18390    17631    17660 1
   18391    17631    17661 1
   18392    17632    17633 1
   18393    17632    17662 1
   18394    17632    17663 1
   18395    17633    17664 1
   18396    17633    17665 1
   18397    17633    17666 1
   18398    17667    17668 1
   18399    17667    17674 1
   18400    17667    17690 1
   18401    17667    17739 1
   18402    17668    17669 1
   18403    17668    17672 1
   18404    17669    17670 1
   18405    17669    17673 1
   18406    17670    17671 1
   18407    17671    17672 1
   18408    17672    17678 1
   18409    17673    17674 1
   18410    17673    17677 1
   18411    17674    17675 1
   18412    17675    17676 1
   18413    17675    17679 1
   18414    17676    17677 1
   18415    17676    17688 1
   18416    17680    17681 1
   18417    17680    17688 1
   18418    17681    17682 1
   18419    17681    17689 1
   18420    17682    17683 1
   18421    17682    17792 1
   18422    17683    17684 1
   18423    17683    17687 1
   18424    17684    17685 1
   18425    17685    17686 1
   18426    17686    17687 1
   18427    17687    17688 1
   18428    17690    17691 1
   18429    17690    17706 1
   18430    17690    17707 1
   18431    17691    17692 1
   18432    17691    17708 1
   18433    17691    17709 1
   18434    17692    17693 1
   18435    17692    17710 1
   18436    17692    17711 1
   18437    17693    17694 1
   18438    17693    17712 1
   18439    17693    17713 1
   18440    17694    17695 1
   18441    17694    17714 1
   18442    17694    17715 1
   18443    17695    17696 1
   18444    17695    17716 1
   18445    17695    17717 1
   18446    17696    17697 1
   18447    17696    17718 1
   18448    17696    17719 1
   18449    17697    17698 1
   18450    17697    17720 1
   18451    17697    17721 1
   18452    17698    17699 1
   18453    17698    17722 1
   18454    17698    17723 1
   18455    17699    17700 1
   18456    17699    17724 1
   18457    17699    17725 1
   18458    17700    17701 1
   18459    17700    17726 1
   18460    17700    17727 1
   18461    17701    17702 1
   18462    17701    17728 1
   18463    17701    17729 1
   18464    17702    17703 1
   18465    17702    17730 1
   18466    17702    17731 1
   18467    17703    17704 1
   18468    17703    17732 1
   18469    17703    17733 1
   18470    17704    17705 1
   18471    17704    17734 1
   18472    17704    17735 1
   18473    17705    17736 1
   18474    17705    17737 1
   18475    17705    17738 1
   18476    17739    17740 1
   18477    17739    17755 1
   18478    17739    17756 1
   18479    17740    17741 1
   18480    17740    17757 1
   18481    17740    17758 1
   18482    17741    17742 1
   18483    17741    17759 1
   18484    17741    17760 1
   18485    17742    17743 1
   18486    17742    17761 1
   18487    17742    17762 1
   18488    17743    17744 1
   18489    17743    17763 1
   18490    17743    17764 1
   18491    17744    17745 1
   18492    17744    17765 1
   18493    17744    17766 1
   18494    17745    17746 1
   18495    17745    17767 1
   18496    17745    17768 1
   18497    17746    17747 1
   18498    17746    17769 1
   18499    17746    17770 1
   18500    17747    17748 1
   18501    17747    17771 1
   18502    17747    17772 1
   18503    17748    17749 1
   18504    17748    17773 1
   18505    17748    17774 1
   18506    17749    17750 1
   18507    17749    17775 1
   18508    17749    17776 1
   18509    17750    17751 1
   18510    17750    17777 1
   18511    17750    17778 1
   18512    17751    17752 1
   18513    17751    17779 1
   18514    17751    17780 1
   18515    17752    17753 1
   18516    17752    17781 1
   18517    17752    17782 1
   18518    17753    17754 1
   18519    17753    17783 1
   18520    17753    17784 1
   18521    17754    17785 1
   18522    17754    17786 1
   18523    17754    17787 1
   18524    17788    17789 1
   18525    17788    17795 1
   18526    17788    17811 1
   18527    17788    17860 1
   18528    17789    17790 1
   18529    17789    17793 1
   18530    17790    17791 1
   18531    17790    17794 1
   18532    17791    17792 1
   18533    17792    17793 1
   18534    17793    17799 1
   18535    17794    17795 1
   18536    17794    17798 1
   18537    17795    17796 1
   18538    17796    17797 1
   18539    17796    17800 1
   18540    17797    17798 1
   18541    17797    17809 1
   18542    17801    17802 1
   18543    17801    17809 1
   18544    17802    17803 1
   18545    17802    17810 1
   18546    17803    17804 1
   18547    17803    17913 1
   18548    17804    17805 1
   18549    17804    17808 1
   18550    17805    17806 1
   18551    17806    17807 1
   18552    17807    17808 1
   18553    17808    17809 1
   18554    17811    17812 1
   18555    17811    17827 1
   18556    17811    17828 1
   18557    17812    17813 1
   18558    17812    17829 1
   18559    17812    17830 1
   18560    17813    17814 1
   18561    17813    17831 1
   18562    17813    17832 1
   18563    17814    17815 1
   18564    17814    17833 1
   18565    17814    17834 1
   18566    17815    17816 1
   18567    17815    17835 1
   18568    17815    17836 1
   18569    17816    17817 1
   18570    17816    17837 1
   18571    17816    17838 1
   18572    17817    17818 1
   18573    17817    17839 1
   18574    17817    17840 1
   18575    17818    17819 1
   18576    17818    17841 1
   18577    17818    17842 1
   18578    17819    17820 1
   18579    17819    17843 1
   18580    17819    17844 1
   18581    17820    17821 1
   18582    17820    17845 1
   18583    17820    17846 1
   18584    17821    17822 1
   18585    17821    17847 1
   18586    17821    17848 1
   18587    17822    17823 1
   18588    17822    17849 1
   18589    17822    17850 1
   18590    17823    17824 1
   18591    17823    17851 1
   18592    17823    17852 1
   18593    17824    17825 1
   18594    17824    17853 1
   18595    17824    17854 1
   18596    17825    17826 1
   18597    17825    17855 1
   18598    17825    17856 1
   18599    17826    17857 1
   18600    17826    17858 1
   18601    17826    17859 1
   18602    17860    17861 1
   18603    17860    17876 1
   18604    17860    17877 1
   18605    17861    17862 1
   18606    17861    17878 1
   18607    17861    17879 1
   18608    17862    17863 1
   18609    17862    17880 1
   18610    17862    17881 1
   18611    17863    17864 1
   18612    17863    17882 1
   18613    17863    17883 1
   18614    17864    17865 1
   18615    17864    17884 1
   18616    17864    17885 1
   18617    17865    17866 1
   18618    17865    17886 1
   18619    17865    17887 1
   18620    17866    17867 1
   18621    17866    17888 1
   18622    17866    17889 1
   18623    17867    17868 1
   18624    17867    17890 1
   18625    17867    17891 1
   18626    17868    17869 1
   18627    17868    17892 1
   18628    17868    17893 1
   18629    17869    17870 1
   18630    17869    17894 1
   18631    17869    17895 1
   18632    17870    17871 1
   18633    17870    17896 1
   18634    17870    17897 1
   18635    17871    17872 1
   18636    17871    17898 1
   18637    17871    17899 1
   18638    17872    17873 1
   18639    17872    17900 1
   18640    17872    17901 1
   18641    17873    17874 1
   18642    17873    17902 1
   18643    17873    17903 1
   18644    17874    17875 1
   18645    17874    17904 1
   18646    17874    17905 1
   18647    17875    17906 1
   18648    17875    17907 1
   18649    17875    17908 1
   18650    17909    17910 1
   18651    17909    17916 1
   18652    17909    17932 1
   18653    17909    17981 1
   18654    17910    17911 1
   18655    17910    17914 1
   18656    17911    17912 1
   18657    17911    17915 1
   18658    17912    17913 1
   18659    17913    17914 1
   18660    17914    17920 1
   18661    17915    17916 1
   18662    17915    17919 1
   18663    17916    17917 1
   18664    17917    17918 1
   18665    17917    17921 1
   18666    17918    17919 1
   18667    17918    17930 1
   18668    17922    17923 1
   18669    17922    17930 1
   18670    17923    17924 1
   18671    17923    17931 1
   18672    17924    17925 1
   18673    17924    18034 1
   18674    17925    17926 1
   18675    17925    17929 1
   18676    17926    17927 1
   18677    17927    17928 1
   18678    17928    17929 1
   18679    17929    17930 1
   18680    17932    17933 1
   18681    17932    17948 1
   18682    17932    17949 1
   18683    17933    17934 1
   18684    17933    17950 1
   18685    17933    17951 1
   18686    17934    17935 1
   18687    17934    17952 1
   18688    17934    17953 1
   18689    17935    17936 1
   18690    17935    17954 1
   18691    17935    17955 1
   18692    17936    17937 1
   18693    17936    17956 1
   18694    17936    17957 1
   18695    17937    17938 1
   18696    17937    17958 1
   18697    17937    17959 1
   18698    17938    17939 1
   18699    17938    17960 1
   18700    17938    17961 1
   18701    17939    17940 1
   18702    17939    17962 1
   18703    17939    17963 1
   18704    17940    17941 1
   18705    17940    17964 1
   18706    17940    17965 1
   18707    17941    17942 1
   18708    17941    17966 1
   18709    17941    17967 1
   18710    17942    17943 1
   18711    17942    17968 1
   18712    17942    17969 1
   18713    17943    17944 1
   18714    17943    17970 1
   18715    17943    17971 1
   18716    17944    17945 1
   18717    17944    17972 1
   18718    17944    17973 1
   18719    17945    17946 1
   18720    17945    17974 1
   18721    17945    17975 1
   18722    17946    17947 1
   18723    17946    17976 1
   18724    17946    17977 1
   18725    17947    17978 1
   18726    17947    17979 1
   18727    17947    17980 1
   18728    17981    17982 1
   18729    17981    17997 1
   18730    17981    17998 1
   18731    17982    17983 1
   18732    17982    17999 1
   18733    17982    18000 1
   18734    17983    17984 1
   18735    17983    18001 1
   18736    17983    18002 1
   18737    17984    17985 1
   18738    17984    18003 1
   18739    17984    18004 1
   18740    17985    17986 1
   18741    17985    18005 1
   18742    17985    18006 1
   18743    17986    17987 1
   18744    17986    18007 1
   18745    17986    18008 1
   18746    17987    17988 1
   18747    17987    18009 1
   18748    17987    18010 1
   18749    17988    17989 1
   18750    17988    18011 1
   18751    17988    18012 1
   18752    17989    17990 1
   18753    17989    18013 1
   18754    17989    18014 1
   18755    17990    17991 1
   18756    17990    18015 1
   18757    17990    18016 1
   18758    17991    17992 1
   18759    17991    18017 1
   18760    17991    18018 1
   18761    17992    17993 1
   18762    17992    18019 1
   18763    17992    18020 1
   18764    17993    17994 1
   18765    17993    18021 1
   18766    17993    18022 1
   18767    17994    17995 1
   18768    17994    18023 1
   18769    17994    18024 1
   18770    17995    17996 1
   18771    17995    18025 1
   18772    17995    18026 1
   18773    17996    18027 1
   18774    17996    18028 1
   18775    17996    18029 1
   18776    18030    18031 1
   18777    18030    18037 1
   18778    18030    18053 1
   18779    18030    18102 1
   18780    18031    18032 1
   18781    18031    18035 1
   18782    18032    18033 1
   18783    18032    18036 1
   18784    18033    18034 1
   18785    18034    18035 1
   18786    18035    18041 1
   18787    18036    18037 1
   18788    18036    18040 1
   18789    18037    18038 1
   18790    18038    18039 1
   18791    18038    18042 1
   18792    18039    18040 1
   18793    18039    18051 1
   18794    18043    18044 1
   18795    18043    18051 1
   18796    18044    18045 1
   18797    18044    18052 1
   18798    18045    18046 1
   18799    18045    18155 1
   18800    18046    18047 1
   18801    18046    18050 1
   18802    18047    18048 1
   18803    18048    18049 1
   18804    18049    18050 1
   18805    18050    18051 1
   18806    18053    18054 1
   18807    18053    18069 1
   18808    18053    18070 1
   18809    18054    18055 1
   18810    18054    18071 1
   18811    18054    18072 1
   18812    18055    18056 1
   18813    18055    18073 1
   18814    18055    18074 1
   18815    18056    18057 1
   18816    18056    18075 1
   18817    18056    18076 1
   18818    18057    18058 1
   18819    18057    18077 1
   18820    18057    18078 1
   18821    18058    18059 1
   18822    18058    18079 1
   18823    18058    18080 1
   18824    18059    18060 1
   18825    18059    18081 1
   18826    18059    18082 1
   18827    18060    18061 1
   18828    18060    18083 1
   18829    18060    18084 1
   18830    18061    18062 1
   18831    18061    18085 1
   18832    18061    18086 1
   18833    18062    18063 1
   18834    18062    18087 1
   18835    18062    18088 1
   18836    18063    18064 1
   18837    18063    18089 1
   18838    18063    18090 1
   18839    18064    18065 1
   18840    18064    18091 1
   18841    18064    18092 1
   18842    18065    18066 1
   18843    18065    18093 1
   18844    18065    18094 1
   18845    18066    18067 1
   18846    18066    18095 1
   18847    18066    18096 1
   18848    18067    18068 1
   18849    18067    18097 1
   18850    18067    18098 1
   18851    18068    18099 1
   18852    18068    18100 1
   18853    18068    18101 1
   18854    18102    18103 1
   18855    18102    18118 1
   18856    18102    18119 1
   18857    18103    18104 1
   18858    18103    18120 1
   18859    18103    18121 1
   18860    18104    18105 1
   18861    18104    18122 1
   18862    18104    18123 1
   18863    18105    18106 1
   18864    18105    18124 1
   18865    18105    18125 1
   18866    18106    18107 1
   18867    18106    18126 1
   18868    18106    18127 1
   18869    18107    18108 1
   18870    18107    18128 1
   18871    18107    18129 1
   18872    18108    18109 1
   18873    18108    18130 1
   18874    18108    18131 1
   18875    18109    18110 1
   18876    18109    18132 1
   18877    18109    18133 1
   18878    18110    18111 1
   18879    18110    18134 1
   18880    18110    18135 1
   18881    18111    18112 1
   18882    18111    18136 1
   18883    18111    18137 1
   18884    18112    18113 1
   18885    18112    18138 1
   18886    18112    18139 1
   18887    18113    18114 1
   18888    18113    18140 1
   18889    18113    18141 1
   18890    18114    18115 1
   18891    18114    18142 1
   18892    18114    18143 1
   18893    18115    18116 1
   18894    18115    18144 1
   18895    18115    18145 1
   18896    18116    18117 1
   18897    18116    18146 1
   18898    18116    18147 1
   18899    18117    18148 1
   18900    18117    18149 1
   18901    18117    18150 1
   18902    18151    18152 1
   18903    18151    18158 1
   18904    18151    18174 1
   18905    18151    18223 1
   18906    18152    18153 1
   18907    18152    18156 1
   18908    18153    18154 1
   18909    18153    18157 1
   18910    18154    18155 1
   18911    18155    18156 1
   18912    18156    18162 1
   18913    18157    18158 1
   18914    18157    18161 1
   18915    18158    18159 1
   18916    18159    18160 1
   18917    18159    18163 1
   18918    18160    18161 1
   18919    18160    18172 1
   18920    18164    18165 1
   18921    18164    18172 1
   18922    18165    18166 1
   18923    18165    18173 1
   18924    18166    18167 1
   18925    18166    18276 1
   18926    18167    18168 1
   18927    18167    18171 1
   18928    18168    18169 1
   18929    18169    18170 1
   18930    18170    18171 1
   18931    18171    18172 1
   18932    18174    18175 1
   18933    18174    18190 1
   18934    18174    18191 1
   18935    18175    18176 1
   18936    18175    18192 1
   18937    18175    18193 1
   18938    18176    18177 1
   18939    18176    18194 1
   18940    18176    18195 1
   18941    18177    18178 1
   18942    18177    18196 1
   18943    18177    18197 1
   18944    18178    18179 1
   18945    18178    18198 1
   18946    18178    18199 1
   18947    18179    18180 1
   18948    18179    18200 1
   18949    18179    18201 1
   18950    18180    18181 1
   18951    18180    18202 1
   18952    18180    18203 1
   18953    18181    18182 1
   18954    18181    18204 1
   18955    18181    18205 1
   18956    18182    18183 1
   18957    18182    18206 1
   18958    18182    18207 1
   18959    18183    18184 1
   18960    18183    18208 1
   18961    18183    18209 1
   18962    18184    18185 1
   18963    18184    18210 1
   18964    18184    18211 1
   18965    18185    18186 1
   18966    18185    18212 1
   18967    18185    18213 1
   18968    18186    18187 1
   18969    18186    18214 1
   18970    18186    18215 1
   18971    18187    18188 1
   18972    18187    18216 1
   18973    18187    18217 1
   18974    18188    18189 1
   18975    18188    18218 1
   18976    18188    18219 1
   18977    18189    18220 1
   18978    18189    18221 1
   18979    18189    18222 1
   18980    18223    18224 1
   18981    18223    18239 1
   18982    18223    18240 1
   18983    18224    18225 1
   18984    18224    18241 1
   18985    18224    18242 1
   18986    18225    18226 1
   18987    18225    18243 1
   18988    18225    18244 1
   18989    18226    18227 1
   18990    18226    18245 1
   18991    18226    18246 1
   18992    18227    18228 1
   18993    18227    18247 1
   18994    18227    18248 1
   18995    18228    18229 1
   18996    18228    18249 1
   18997    18228    18250 1
   18998    18229    18230 1
   18999    18229    18251 1
   19000    18229    18252 1
   19001    18230    18231 1
   19002    18230    18253 1
   19003    18230    18254 1
   19004    18231    18232 1
   19005    18231    18255 1
   19006    18231    18256 1
   19007    18232    18233 1
   19008    18232    18257 1
   19009    18232    18258 1
   19010    18233    18234 1
   19011    18233    18259 1
   19012    18233    18260 1
   19013    18234    18235 1
   19014    18234    18261 1
   19015    18234    18262 1
   19016    18235    18236 1
   19017    18235    18263 1
   19018    18235    18264 1
   19019    18236    18237 1
   19020    18236    18265 1
   19021    18236    18266 1
   19022    18237    18238 1
   19023    18237    18267 1
   19024    18237    18268 1
   19025    18238    18269 1
   19026    18238    18270 1
   19027    18238    18271 1
   19028    18272    18273 1
   19029    18272    18279 1
   19030    18272    18295 1
   19031    18272    18344 1
   19032    18273    18274 1
   19033    18273    18277 1
   19034    18274    18275 1
   19035    18274    18278 1
   19036    18275    18276 1
   19037    18276    18277 1
   19038    18277    18283 1
   19039    18278    18279 1
   19040    18278    18282 1
   19041    18279    18280 1
   19042    18280    18281 1
   19043    18280    18284 1
   19044    18281    18282 1
   19045    18281    18293 1
   19046    18285    18286 1
   19047    18285    18293 1
   19048    18286    18287 1
   19049    18286    18294 1
   19050    18287    18288 1
   19051    18287    18397 1
   19052    18288    18289 1
   19053    18288    18292 1
   19054    18289    18290 1
   19055    18290    18291 1
   19056    18291    18292 1
   19057    18292    18293 1
   19058    18295    18296 1
   19059    18295    18311 1
   19060    18295    18312 1
   19061    18296    18297 1
   19062    18296    18313 1
   19063    18296    18314 1
   19064    18297    18298 1
   19065    18297    18315 1
   19066    18297    18316 1
   19067    18298    18299 1
   19068    18298    18317 1
   19069    18298    18318 1
   19070    18299    18300 1
   19071    18299    18319 1
   19072    18299    18320 1
   19073    18300    18301 1
   19074    18300    18321 1
   19075    18300    18322 1
   19076    18301    18302 1
   19077    18301    18323 1
   19078    18301    18324 1
   19079    18302    18303 1
   19080    18302    18325 1
   19081    18302    18326 1
   19082    18303    18304 1
   19083    18303    18327 1
   19084    18303    18328 1
   19085    18304    18305 1
   19086    18304    18329 1
   19087    18304    18330 1
   19088    18305    18306 1
   19089    18305    18331 1
   19090    18305    18332 1
   19091    18306    18307 1
   19092    18306    18333 1
   19093    18306    18334 1
   19094    18307    18308 1
   19095    18307    18335 1
   19096    18307    18336 1
   19097    18308    18309 1
   19098    18308    18337 1
   19099    18308    18338 1
   19100    18309    18310 1
   19101    18309    18339 1
   19102    18309    18340 1
   19103    18310    18341 1
   19104    18310    18342 1
   19105    18310    18343 1
   19106    18344    18345 1
   19107    18344    18360 1
   19108    18344    18361 1
   19109    18345    18346 1
   19110    18345    18362 1
   19111    18345    18363 1
   19112    18346    18347 1
   19113    18346    18364 1
   19114    18346    18365 1
   19115    18347    18348 1
   19116    18347    18366 1
   19117    18347    18367 1
   19118    18348    18349 1
   19119    18348    18368 1
   19120    18348    18369 1
   19121    18349    18350 1
   19122    18349    18370 1
   19123    18349    18371 1
   19124    18350    18351 1
   19125    18350    18372 1
   19126    18350    18373 1
   19127    18351    18352 1
   19128    18351    18374 1
   19129    18351    18375 1
   19130    18352    18353 1
   19131    18352    18376 1
   19132    18352    18377 1
   19133    18353    18354 1
   19134    18353    18378 1
   19135    18353    18379 1
   19136    18354    18355 1
   19137    18354    18380 1
   19138    18354    18381 1
   19139    18355    18356 1
   19140    18355    18382 1
   19141    18355    18383 1
   19142    18356    18357 1
   19143    18356    18384 1
   19144    18356    18385 1
   19145    18357    18358 1
   19146    18357    18386 1
   19147    18357    18387 1
   19148    18358    18359 1
   19149    18358    18388 1
   19150    18358    18389 1
   19151    18359    18390 1
   19152    18359    18391 1
   19153    18359    18392 1
   19154    18393    18394 1
   19155    18393    18400 1
   19156    18393    18416 1
   19157    18393    18465 1
   19158    18394    18395 1
   19159    18394    18398 1
   19160    18395    18396 1
   19161    18395    18399 1
   19162    18396    18397 1
   19163    18397    18398 1
   19164    18398    18404 1
   19165    18399    18400 1
   19166    18399    18403 1
   19167    18400    18401 1
   19168    18401    18402 1
   19169    18401    18405 1
   19170    18402    18403 1
   19171    18402    18414 1
   19172    18406    18407 1
   19173    18406    18414 1
   19174    18407    18408 1
   19175    18407    18415 1
   19176    18408    18409 1
   19177    18408    18518 1
   19178    18409    18410 1
   19179    18409    18413 1
   19180    18410    18411 1
   19181    18411    18412 1
   19182    18412    18413 1
   19183    18413    18414 1
   19184    18416    18417 1
   19185    18416    18432 1
   19186    18416    18433 1
   19187    18417    18418 1
   19188    18417    18434 1
   19189    18417    18435 1
   19190    18418    18419 1
   19191    18418    18436 1
   19192    18418    18437 1
   19193    18419    18420 1
   19194    18419    18438 1
   19195    18419    18439 1
   19196    18420    18421 1
   19197    18420    18440 1
   19198    18420    18441 1
   19199    18421    18422 1
   19200    18421    18442 1
   19201    18421    18443 1
   19202    18422    18423 1
   19203    18422    18444 1
   19204    18422    18445 1
   19205    18423    18424 1
   19206    18423    18446 1
   19207    18423    18447 1
   19208    18424    18425 1
   19209    18424    18448 1
   19210    18424    18449 1
   19211    18425    18426 1
   19212    18425    18450 1
   19213    18425    18451 1
   19214    18426    18427 1
   19215    18426    18452 1
   19216    18426    18453 1
   19217    18427    18428 1
   19218    18427    18454 1
   19219    18427    18455 1
   19220    18428    18429 1
   19221    18428    18456 1
   19222    18428    18457 1
   19223    18429    18430 1
   19224    18429    18458 1
   19225    18429    18459 1
   19226    18430    18431 1
   19227    18430    18460 1
   19228    18430    18461 1
   19229    18431    18462 1
   19230    18431    18463 1
   19231    18431    18464 1
   19232    18465    18466 1
   19233    18465    18481 1
   19234    18465    18482 1
   19235    18466    18467 1
   19236    18466    18483 1
   19237    18466    18484 1
   19238    18467    18468 1
   19239    18467    18485 1
   19240    18467    18486 1
   19241    18468    18469 1
   19242    18468    18487 1
   19243    18468    18488 1
   19244    18469    18470 1
   19245    18469    18489 1
   19246    18469    18490 1
   19247    18470    18471 1
   19248    18470    18491 1
   19249    18470    18492 1
   19250    18471    18472 1
   19251    18471    18493 1
   19252    18471    18494 1
   19253    18472    18473 1
   19254    18472    18495 1
   19255    18472    18496 1
   19256    18473    18474 1
   19257    18473    18497 1
   19258    18473    18498 1
   19259    18474    18475 1
   19260    18474    18499 1
   19261    18474    18500 1
   19262    18475    18476 1
   19263    18475    18501 1
   19264    18475    18502 1
   19265    18476    18477 1
   19266    18476    18503 1
   19267    18476    18504 1
   19268    18477    18478 1
   19269    18477    18505 1
   19270    18477    18506 1
   19271    18478    18479 1
   19272    18478    18507 1
   19273    18478    18508 1
   19274    18479    18480 1
   19275    18479    18509 1
   19276    18479    18510 1
   19277    18480    18511 1
   19278    18480    18512 1
   19279    18480    18513 1
   19280    18514    18515 1
   19281    18514    18521 1
   19282    18514    18537 1
   19283    18514    18586 1
   19284    18515    18516 1
   19285    18515    18519 1
   19286    18516    18517 1
   19287    18516    18520 1
   19288    18517    18518 1
   19289    18518    18519 1
   19290    18519    18525 1
   19291    18520    18521 1
   19292    18520    18524 1
   19293    18521    18522 1
   19294    18522    18523 1
   19295    18522    18526 1
   19296    18523    18524 1
   19297    18523    18535 1
   19298    18527    18528 1
   19299    18527    18535 1
   19300    18528    18529 1
   19301    18528    18536 1
   19302    18529    18530 1
   19303    18529    18639 1
   19304    18530    18531 1
   19305    18530    18534 1
   19306    18531    18532 1
   19307    18532    18533 1
   19308    18533    18534 1
   19309    18534    18535 1
   19310    18537    18538 1
   19311    18537    18553 1
   19312    18537    18554 1
   19313    18538    18539 1
   19314    18538    18555 1
   19315    18538    18556 1
   19316    18539    18540 1
   19317    18539    18557 1
   19318    18539    18558 1
   19319    18540    18541 1
   19320    18540    18559 1
   19321    18540    18560 1
   19322    18541    18542 1
   19323    18541    18561 1
   19324    18541    18562 1
   19325    18542    18543 1
   19326    18542    18563 1
   19327    18542    18564 1
   19328    18543    18544 1
   19329    18543    18565 1
   19330    18543    18566 1
   19331    18544    18545 1
   19332    18544    18567 1
   19333    18544    18568 1
   19334    18545    18546 1
   19335    18545    18569 1
   19336    18545    18570 1
   19337    18546    18547 1
   19338    18546    18571 1
   19339    18546    18572 1
   19340    18547    18548 1
   19341    18547    18573 1
   19342    18547    18574 1
   19343    18548    18549 1
   19344    18548    18575 1
   19345    18548    18576 1
   19346    18549    18550 1
   19347    18549    18577 1
   19348    18549    18578 1
   19349    18550    18551 1
   19350    18550    18579 1
   19351    18550    18580 1
   19352    18551    18552 1
   19353    18551    18581 1
   19354    18551    18582 1
   19355    18552    18583 1
   19356    18552    18584 1
   19357    18552    18585 1
   19358    18586    18587 1
   19359    18586    18602 1
   19360    18586    18603 1
   19361    18587    18588 1
   19362    18587    18604 1
   19363    18587    18605 1
   19364    18588    18589 1
   19365    18588    18606 1
   19366    18588    18607 1
   19367    18589    18590 1
   19368    18589    18608 1
   19369    18589    18609 1
   19370    18590    18591 1
   19371    18590    18610 1
   19372    18590    18611 1
   19373    18591    18592 1
   19374    18591    18612 1
   19375    18591    18613 1
   19376    18592    18593 1
   19377    18592    18614 1
   19378    18592    18615 1
   19379    18593    18594 1
   19380    18593    18616 1
   19381    18593    18617 1
   19382    18594    18595 1
   19383    18594    18618 1
   19384    18594    18619 1
   19385    18595    18596 1
   19386    18595    18620 1
   19387    18595    18621 1
   19388    18596    18597 1
   19389    18596    18622 1
   19390    18596    18623 1
   19391    18597    18598 1
   19392    18597    18624 1
   19393    18597    18625 1
   19394    18598    18599 1
   19395    18598    18626 1
   19396    18598    18627 1
   19397    18599    18600 1
   19398    18599    18628 1
   19399    18599    18629 1
   19400    18600    18601 1
   19401    18600    18630 1
   19402    18600    18631 1
   19403    18601    18632 1
   19404    18601    18633 1
   19405    18601    18634 1
   19406    18635    18636 1
   19407    18635    18642 1
   19408    18635    18658 1
   19409    18635    18707 1
   19410    18636    18637 1
   19411    18636    18640 1
   19412    18637    18638 1
   19413    18637    18641 1
   19414    18638    18639 1
   19415    18639    18640 1
   19416    18640    18646 1
   19417    18641    18642 1
   19418    18641    18645 1
   19419    18642    18643 1
   19420    18643    18644 1
   19421    18643    18647 1
   19422    18644    18645 1
   19423    18644    18656 1
   19424    18648    18649 1
   19425    18648    18656 1
   19426    18649    18650 1
   19427    18649    18657 1
   19428    18650    18651 1
   19429    18650    18760 1
   19430    18651    18652 1
   19431    18651    18655 1
   19432    18652    18653 1
   19433    18653    18654 1
   19434    18654    18655 1
   19435    18655    18656 1
   19436    18658    18659 1
   19437    18658    18674 1
   19438    18658    18675 1
   19439    18659    18660 1
   19440    18659    18676 1
   19441    18659    18677 1
   19442    18660    18661 1
   19443    18660    18678 1
   19444    18660    18679 1
   19445    18661    18662 1
   19446    18661    18680 1
   19447    18661    18681 1
   19448    18662    18663 1
   19449    18662    18682 1
   19450    18662    18683 1
   19451    18663    18664 1
   19452    18663    18684 1
   19453    18663    18685 1
   19454    18664    18665 1
   19455    18664    18686 1
   19456    18664    18687 1
   19457    18665    18666 1
   19458    18665    18688 1
   19459    18665    18689 1
   19460    18666    18667 1
   19461    18666    18690 1
   19462    18666    18691 1
   19463    18667    18668 1
   19464    18667    18692 1
   19465    18667    18693 1
   19466    18668    18669 1
   19467    18668    18694 1
   19468    18668    18695 1
   19469    18669    18670 1
   19470    18669    18696 1
   19471    18669    18697 1
   19472    18670    18671 1
   19473    18670    18698 1
   19474    18670    18699 1
   19475    18671    18672 1
   19476    18671    18700 1
   19477    18671    18701 1
   19478    18672    18673 1
   19479    18672    18702 1
   19480    18672    18703 1
   19481    18673    18704 1
   19482    18673    18705 1
   19483    18673    18706 1
   19484    18707    18708 1
   19485    18707    18723 1
   19486    18707    18724 1
   19487    18708    18709 1
   19488    18708    18725 1
   19489    18708    18726 1
   19490    18709    18710 1
   19491    18709    18727 1
   19492    18709    18728 1
   19493    18710    18711 1
   19494    18710    18729 1
   19495    18710    18730 1
   19496    18711    18712 1
   19497    18711    18731 1
   19498    18711    18732 1
   19499    18712    18713 1
   19500    18712    18733 1
   19501    18712    18734 1
   19502    18713    18714 1
   19503    18713    18735 1
   19504    18713    18736 1
   19505    18714    18715 1
   19506    18714    18737 1
   19507    18714    18738 1
   19508    18715    18716 1
   19509    18715    18739 1
   19510    18715    18740 1
   19511    18716    18717 1
   19512    18716    18741 1
   19513    18716    18742 1
   19514    18717    18718 1
   19515    18717    18743 1
   19516    18717    18744 1
   19517    18718    18719 1
   19518    18718    18745 1
   19519    18718    18746 1
   19520    18719    18720 1
   19521    18719    18747 1
   19522    18719    18748 1
   19523    18720    18721 1
   19524    18720    18749 1
   19525    18720    18750 1
   19526    18721    18722 1
   19527    18721    18751 1
   19528    18721    18752 1
   19529    18722    18753 1
   19530    18722    18754 1
   19531    18722    18755 1
   19532    18756    18757 1
   19533    18756    18763 1
   19534    18756    18779 1
   19535    18756    18828 1
   19536    18757    18758 1
   19537    18757    18761 1
   19538    18758    18759 1
   19539    18758    18762 1
   19540    18759    18760 1
   19541    18760    18761 1
   19542    18761    18767 1
   19543    18762    18763 1
   19544    18762    18766 1
   19545    18763    18764 1
   19546    18764    18765 1
   19547    18764    18768 1
   19548    18765    18766 1
   19549    18765    18777 1
   19550    18769    18770 1
   19551    18769    18777 1
   19552    18770    18771 1
   19553    18770    18778 1
   19554    18771    18772 1
   19555    18771    18881 1
   19556    18772    18773 1
   19557    18772    18776 1
   19558    18773    18774 1
   19559    18774    18775 1
   19560    18775    18776 1
   19561    18776    18777 1
   19562    18779    18780 1
   19563    18779    18795 1
   19564    18779    18796 1
   19565    18780    18781 1
   19566    18780    18797 1
   19567    18780    18798 1
   19568    18781    18782 1
   19569    18781    18799 1
   19570    18781    18800 1
   19571    18782    18783 1
   19572    18782    18801 1
   19573    18782    18802 1
   19574    18783    18784 1
   19575    18783    18803 1
   19576    18783    18804 1
   19577    18784    18785 1
   19578    18784    18805 1
   19579    18784    18806 1
   19580    18785    18786 1
   19581    18785    18807 1
   19582    18785    18808 1
   19583    18786    18787 1
   19584    18786    18809 1
   19585    18786    18810 1
   19586    18787    18788 1
   19587    18787    18811 1
   19588    18787    18812 1
   19589    18788    18789 1
   19590    18788    18813 1
   19591    18788    18814 1
   19592    18789    18790 1
   19593    18789    18815 1
   19594    18789    18816 1
   19595    18790    18791 1
   19596    18790    18817 1
   19597    18790    18818 1
   19598    18791    18792 1
   19599    18791    18819 1
   19600    18791    18820 1
   19601    18792    18793 1
   19602    18792    18821 1
   19603    18792    18822 1
   19604    18793    18794 1
   19605    18793    18823 1
   19606    18793    18824 1
   19607    18794    18825 1
   19608    18794    18826 1
   19609    18794    18827 1
   19610    18828    18829 1
   19611    18828    18844 1
   19612    18828    18845 1
   19613    18829    18830 1
   19614    18829    18846 1
   19615    18829    18847 1
   19616    18830    18831 1
   19617    18830    18848 1
   19618    18830    18849 1
   19619    18831    18832 1
   19620    18831    18850 1
   19621    18831    18851 1
   19622    18832    18833 1
   19623    18832    18852 1
   19624    18832    18853 1
   19625    18833    18834 1
   19626    18833    18854 1
   19627    18833    18855 1
   19628    18834    18835 1
   19629    18834    18856 1
   19630    18834    18857 1
   19631    18835    18836 1
   19632    18835    18858 1
   19633    18835    18859 1
   19634    18836    18837 1
   19635    18836    18860 1
   19636    18836    18861 1
   19637    18837    18838 1
   19638    18837    18862 1
   19639    18837    18863 1
   19640    18838    18839 1
   19641    18838    18864 1
   19642    18838    18865 1
   19643    18839    18840 1
   19644    18839    18866 1
   19645    18839    18867 1
   19646    18840    18841 1
   19647    18840    18868 1
   19648    18840    18869 1
   19649    18841    18842 1
   19650    18841    18870 1
   19651    18841    18871 1
   19652    18842    18843 1
   19653    18842    18872 1
   19654    18842    18873 1
   19655    18843    18874 1
   19656    18843    18875 1
   19657    18843    18876 1
   19658    18877    18878 1
   19659    18877    18884 1
   19660    18877    18900 1
   19661    18877    18949 1
   19662    18878    18879 1
   19663    18878    18882 1
   19664    18879    18880 1
   19665    18879    18883 1
   19666    18880    18881 1
   19667    18881    18882 1
   19668    18882    18888 1
   19669    18883    18884 1
   19670    18883    18887 1
   19671    18884    18885 1
   19672    18885    18886 1
   19673    18885    18889 1
   19674    18886    18887 1
   19675    18886    18898 1
   19676    18890    18891 1
   19677    18890    18898 1
   19678    18891    18892 1
   19679    18891    18899 1
   19680    18892    18893 1
   19681    18892    19002 1
   19682    18893    18894 1
   19683    18893    18897 1
   19684    18894    18895 1
   19685    18895    18896 1
   19686    18896    18897 1
   19687    18897    18898 1
   19688    18900    18901 1
   19689    18900    18916 1
   19690    18900    18917 1
   19691    18901    18902 1
   19692    18901    18918 1
   19693    18901    18919 1
   19694    18902    18903 1
   19695    18902    18920 1
   19696    18902    18921 1
   19697    18903    18904 1
   19698    18903    18922 1
   19699    18903    18923 1
   19700    18904    18905 1
   19701    18904    18924 1
   19702    18904    18925 1
   19703    18905    18906 1
   19704    18905    18926 1
   19705    18905    18927 1
   19706    18906    18907 1
   19707    18906    18928 1
   19708    18906    18929 1
   19709    18907    18908 1
   19710    18907    18930 1
   19711    18907    18931 1
   19712    18908    18909 1
   19713    18908    18932 1
   19714    18908    18933 1
   19715    18909    18910 1
   19716    18909    18934 1
   19717    18909    18935 1
   19718    18910    18911 1
   19719    18910    18936 1
   19720    18910    18937 1
   19721    18911    18912 1
   19722    18911    18938 1
   19723    18911    18939 1
   19724    18912    18913 1
   19725    18912    18940 1
   19726    18912    18941 1
   19727    18913    18914 1
   19728    18913    18942 1
   19729    18913    18943 1
   19730    18914    18915 1
   19731    18914    18944 1
   19732    18914    18945 1
   19733    18915    18946 1
   19734    18915    18947 1
   19735    18915    18948 1
   19736    18949    18950 1
   19737    18949    18965 1
   19738    18949    18966 1
   19739    18950    18951 1
   19740    18950    18967 1
   19741    18950    18968 1
   19742    18951    18952 1
   19743    18951    18969 1
   19744    18951    18970 1
   19745    18952    18953 1
   19746    18952    18971 1
   19747    18952    18972 1
   19748    18953    18954 1
   19749    18953    18973 1
   19750    18953    18974 1
   19751    18954    18955 1
   19752    18954    18975 1
   19753    18954    18976 1
   19754    18955    18956 1
   19755    18955    18977 1
   19756    18955    18978 1
   19757    18956    18957 1
   19758    18956    18979 1
   19759    18956    18980 1
   19760    18957    18958 1
   19761    18957    18981 1
   19762    18957    18982 1
   19763    18958    18959 1
   19764    18958    18983 1
   19765    18958    18984 1
   19766    18959    18960 1
   19767    18959    18985 1
   19768    18959    18986 1
   19769    18960    18961 1
   19770    18960    18987 1
   19771    18960    18988 1
   19772    18961    18962 1
   19773    18961    18989 1
   19774    18961    18990 1
   19775    18962    18963 1
   19776    18962    18991 1
   19777    18962    18992 1
   19778    18963    18964 1
   19779    18963    18993 1
   19780    18963    18994 1
   19781    18964    18995 1
   19782    18964    18996 1
   19783    18964    18997 1
   19784    18998    18999 1
   19785    18998    19005 1
   19786    18998    19021 1
   19787    18998    19070 1
   19788    18999    19000 1
   19789    18999    19003 1
   19790    19000    19001 1
   19791    19000    19004 1
   19792    19001    19002 1
   19793    19002    19003 1
   19794    19003    19009 1
   19795    19004    19005 1
   19796    19004    19008 1
   19797    19005    19006 1
   19798    19006    19007 1
   19799    19006    19010 1
   19800    19007    19008 1
   19801    19007    19019 1
   19802    19011    19012 1
   19803    19011    19019 1
   19804    19012    19013 1
   19805    19012    19020 1
   19806    19013    19014 1
   19807    19013    19123 1
   19808    19014    19015 1
   19809    19014    19018 1
   19810    19015    19016 1
   19811    19016    19017 1
   19812    19017    19018 1
   19813    19018    19019 1
   19814    19021    19022 1
   19815    19021    19037 1
   19816    19021    19038 1
   19817    19022    19023 1
   19818    19022    19039 1
   19819    19022    19040 1
   19820    19023    19024 1
   19821    19023    19041 1
   19822    19023    19042 1
   19823    19024    19025 1
   19824    19024    19043 1
   19825    19024    19044 1
   19826    19025    19026 1
   19827    19025    19045 1
   19828    19025    19046 1
   19829    19026    19027 1
   19830    19026    19047 1
   19831    19026    19048 1
   19832    19027    19028 1
   19833    19027    19049 1
   19834    19027    19050 1
   19835    19028    19029 1
   19836    19028    19051 1
   19837    19028    19052 1
   19838    19029    19030 1
   19839    19029    19053 1
   19840    19029    19054 1
   19841    19030    19031 1
   19842    19030    19055 1
   19843    19030    19056 1
   19844    19031    19032 1
   19845    19031    19057 1
   19846    19031    19058 1
   19847    19032    19033 1
   19848    19032    19059 1
   19849    19032    19060 1
   19850    19033    19034 1
   19851    19033    19061 1
   19852    19033    19062 1
   19853    19034    19035 1
   19854    19034    19063 1
   19855    19034    19064 1
   19856    19035    19036 1
   19857    19035    19065 1
   19858    19035    19066 1
   19859    19036    19067 1
   19860    19036    19068 1
   19861    19036    19069 1
   19862    19070    19071 1
   19863    19070    19086 1
   19864    19070    19087 1
   19865    19071    19072 1
   19866    19071    19088 1
   19867    19071    19089 1
   19868    19072    19073 1
   19869    19072    19090 1
   19870    19072    19091 1
   19871    19073    19074 1
   19872    19073    19092 1
   19873    19073    19093 1
   19874    19074    19075 1
   19875    19074    19094 1
   19876    19074    19095 1
   19877    19075    19076 1
   19878    19075    19096 1
   19879    19075    19097 1
   19880    19076    19077 1
   19881    19076    19098 1
   19882    19076    19099 1
   19883    19077    19078 1
   19884    19077    19100 1
   19885    19077    19101 1
   19886    19078    19079 1
   19887    19078    19102 1
   19888    19078    19103 1
   19889    19079    19080 1
   19890    19079    19104 1
   19891    19079    19105 1
   19892    19080    19081 1
   19893    19080    19106 1
   19894    19080    19107 1
   19895    19081    19082 1
   19896    19081    19108 1
   19897    19081    19109 1
   19898    19082    19083 1
   19899    19082    19110 1
   19900    19082    19111 1
   19901    19083    19084 1
   19902    19083    19112 1
   19903    19083    19113 1
   19904    19084    19085 1
   19905    19084    19114 1
   19906    19084    19115 1
   19907    19085    19116 1
   19908    19085    19117 1
   19909    19085    19118 1
   19910    19119    19120 1
   19911    19119    19126 1
   19912    19119    19142 1
   19913    19119    19191 1
   19914    19120    19121 1
   19915    19120    19124 1
   19916    19121    19122 1
   19917    19121    19125 1
   19918    19122    19123 1
   19919    19123    19124 1
   19920    19124    19130 1
   19921    19125    19126 1
   19922    19125    19129 1
   19923    19126    19127 1
   19924    19127    19128 1
   19925    19127    19131 1
   19926    19128    19129 1
   19927    19128    19140 1
   19928    19132    19133 1
   19929    19132    19140 1
   19930    19133    19134 1
   19931    19133    19141 1
   19932    19134    19135 1
   19933    19134    19244 1
   19934    19135    19136 1
   19935    19135    19139 1
   19936    19136    19137 1
   19937    19137    19138 1
   19938    19138    19139 1
   19939    19139    19140 1
   19940    19142    19143 1
   19941    19142    19158 1
   19942    19142    19159 1
   19943    19143    19144 1
   19944    19143    19160 1
   19945    19143    19161 1
   19946    19144    19145 1
   19947    19144    19162 1
   19948    19144    19163 1
   19949    19145    19146 1
   19950    19145    19164 1
   19951    19145    19165 1
   19952    19146    19147 1
   19953    19146    19166 1
   19954    19146    19167 1
   19955    19147    19148 1
   19956    19147    19168 1
   19957    19147    19169 1
   19958    19148    19149 1
   19959    19148    19170 1
   19960    19148    19171 1
   19961    19149    19150 1
   19962    19149    19172 1
   19963    19149    19173 1
   19964    19150    19151 1
   19965    19150    19174 1
   19966    19150    19175 1
   19967    19151    19152 1
   19968    19151    19176 1
   19969    19151    19177 1
   19970    19152    19153 1
   19971    19152    19178 1
   19972    19152    19179 1
   19973    19153    19154 1
   19974    19153    19180 1
   19975    19153    19181 1
   19976    19154    19155 1
   19977    19154    19182 1
   19978    19154    19183 1
   19979    19155    19156 1
   19980    19155    19184 1
   19981    19155    19185 1
   19982    19156    19157 1
   19983    19156    19186 1
   19984    19156    19187 1
   19985    19157    19188 1
   19986    19157    19189 1
   19987    19157    19190 1
   19988    19191    19192 1
   19989    19191    19207 1
   19990    19191    19208 1
   19991    19192    19193 1
   19992    19192    19209 1
   19993    19192    19210 1
   19994    19193    19194 1
   19995    19193    19211 1
   19996    19193    19212 1
   19997    19194    19195 1
   19998    19194    19213 1
   19999    19194    19214 1
   20000    19195    19196 1
   20001    19195    19215 1
   20002    19195    19216 1
   20003    19196    19197 1
   20004    19196    19217 1
   20005    19196    19218 1
   20006    19197    19198 1
   20007    19197    19219 1
   20008    19197    19220 1
   20009    19198    19199 1
   20010    19198    19221 1
   20011    19198    19222 1
   20012    19199    19200 1
   20013    19199    19223 1
   20014    19199    19224 1
   20015    19200    19201 1
   20016    19200    19225 1
   20017    19200    19226 1
   20018    19201    19202 1
   20019    19201    19227 1
   20020    19201    19228 1
   20021    19202    19203 1
   20022    19202    19229 1
   20023    19202    19230 1
   20024    19203    19204 1
   20025    19203    19231 1
   20026    19203    19232 1
   20027    19204    19205 1
   20028    19204    19233 1
   20029    19204    19234 1
   20030    19205    19206 1
   20031    19205    19235 1
   20032    19205    19236 1
   20033    19206    19237 1
   20034    19206    19238 1
   20035    19206    19239 1
   20036    19240    19241 1
   20037    19240    19247 1
   20038    19240    19263 1
   20039    19240    19312 1
   20040    19241    19242 1
   20041    19241    19245 1
   20042    19242    19243 1
   20043    19242    19246 1
   20044    19243    19244 1
   20045    19244    19245 1
   20046    19245    19251 1
   20047    19246    19247 1
   20048    19246    19250 1
   20049    19247    19248 1
   20050    19248    19249 1
   20051    19248    19252 1
   20052    19249    19250 1
   20053    19249    19261 1
   20054    19253    19254 1
   20055    19253    19261 1
   20056    19254    19255 1
   20057    19254    19262 1
   20058    19255    19256 1
   20059    19255    19365 1
   20060    19256    19257 1
   20061    19256    19260 1
   20062    19257    19258 1
   20063    19258    19259 1
   20064    19259    19260 1
   20065    19260    19261 1
   20066    19263    19264 1
   20067    19263    19279 1
   20068    19263    19280 1
   20069    19264    19265 1
   20070    19264    19281 1
   20071    19264    19282 1
   20072    19265    19266 1
   20073    19265    19283 1
   20074    19265    19284 1
   20075    19266    19267 1
   20076    19266    19285 1
   20077    19266    19286 1
   20078    19267    19268 1
   20079    19267    19287 1
   20080    19267    19288 1
   20081    19268    19269 1
   20082    19268    19289 1
   20083    19268    19290 1
   20084    19269    19270 1
   20085    19269    19291 1
   20086    19269    19292 1
   20087    19270    19271 1
   20088    19270    19293 1
   20089    19270    19294 1
   20090    19271    19272 1
   20091    19271    19295 1
   20092    19271    19296 1
   20093    19272    19273 1
   20094    19272    19297 1
   20095    19272    19298 1
   20096    19273    19274 1
   20097    19273    19299 1
   20098    19273    19300 1
   20099    19274    19275 1
   20100    19274    19301 1
   20101    19274    19302 1
   20102    19275    19276 1
   20103    19275    19303 1
   20104    19275    19304 1
   20105    19276    19277 1
   20106    19276    19305 1
   20107    19276    19306 1
   20108    19277    19278 1
   20109    19277    19307 1
   20110    19277    19308 1
   20111    19278    19309 1
   20112    19278    19310 1
   20113    19278    19311 1
   20114    19312    19313 1
   20115    19312    19328 1
   20116    19312    19329 1
   20117    19313    19314 1
   20118    19313    19330 1
   20119    19313    19331 1
   20120    19314    19315 1
   20121    19314    19332 1
   20122    19314    19333 1
   20123    19315    19316 1
   20124    19315    19334 1
   20125    19315    19335 1
   20126    19316    19317 1
   20127    19316    19336 1
   20128    19316    19337 1
   20129    19317    19318 1
   20130    19317    19338 1
   20131    19317    19339 1
   20132    19318    19319 1
   20133    19318    19340 1
   20134    19318    19341 1
   20135    19319    19320 1
   20136    19319    19342 1
   20137    19319    19343 1
   20138    19320    19321 1
   20139    19320    19344 1
   20140    19320    19345 1
   20141    19321    19322 1
   20142    19321    19346 1
   20143    19321    19347 1
   20144    19322    19323 1
   20145    19322    19348 1
   20146    19322    19349 1
   20147    19323    19324 1
   20148    19323    19350 1
   20149    19323    19351 1
   20150    19324    19325 1
   20151    19324    19352 1
   20152    19324    19353 1
   20153    19325    19326 1
   20154    19325    19354 1
   20155    19325    19355 1
   20156    19326    19327 1
   20157    19326    19356 1
   20158    19326    19357 1
   20159    19327    19358 1
   20160    19327    19359 1
   20161    19327    19360 1
   20162    19361    19362 1
   20163    19361    19368 1
   20164    19361    19384 1
   20165    19361    19433 1
   20166    19362    19363 1
   20167    19362    19366 1
   20168    19363    19364 1
   20169    19363    19367 1
   20170    19364    19365 1
   20171    19365    19366 1
   20172    19366    19372 1
   20173    19367    19368 1
   20174    19367    19371 1
   20175    19368    19369 1
   20176    19369    19370 1
   20177    19369    19373 1
   20178    19370    19371 1
   20179    19370    19382 1
   20180    19374    19375 1
   20181    19374    19382 1
   20182    19375    19376 1
   20183    19375    19383 1
   20184    19376    19377 1
   20185    19376    19486 1
   20186    19377    19378 1
   20187    19377    19381 1
   20188    19378    19379 1
   20189    19379    19380 1
   20190    19380    19381 1
   20191    19381    19382 1
   20192    19384    19385 1
   20193    19384    19400 1
   20194    19384    19401 1
   20195    19385    19386 1
   20196    19385    19402 1
   20197    19385    19403 1
   20198    19386    19387 1
   20199    19386    19404 1
   20200    19386    19405 1
   20201    19387    19388 1
   20202    19387    19406 1
   20203    19387    19407 1
   20204    19388    19389 1
   20205    19388    19408 1
   20206    19388    19409 1
   20207    19389    19390 1
   20208    19389    19410 1
   20209    19389    19411 1
   20210    19390    19391 1
   20211    19390    19412 1
   20212    19390    19413 1
   20213    19391    19392 1
   20214    19391    19414 1
   20215    19391    19415 1
   20216    19392    19393 1
   20217    19392    19416 1
   20218    19392    19417 1
   20219    19393    19394 1
   20220    19393    19418 1
   20221    19393    19419 1
   20222    19394    19395 1
   20223    19394    19420 1
   20224    19394    19421 1
   20225    19395    19396 1
   20226    19395    19422 1
   20227    19395    19423 1
   20228    19396    19397 1
   20229    19396    19424 1
   20230    19396    19425 1
   20231    19397    19398 1
   20232    19397    19426 1
   20233    19397    19427 1
   20234    19398    19399 1
   20235    19398    19428 1
   20236    19398    19429 1
   20237    19399    19430 1
   20238    19399    19431 1
   20239    19399    19432 1
   20240    19433    19434 1
   20241    19433    19449 1
   20242    19433    19450 1
   20243    19434    19435 1
   20244    19434    19451 1
   20245    19434    19452 1
   20246    19435    19436 1
   20247    19435    19453 1
   20248    19435    19454 1
   20249    19436    19437 1
   20250    19436    19455 1
   20251    19436    19456 1
   20252    19437    19438 1
   20253    19437    19457 1
   20254    19437    19458 1
   20255    19438    19439 1
   20256    19438    19459 1
   20257    19438    19460 1
   20258    19439    19440 1
   20259    19439    19461 1
   20260    19439    19462 1
   20261    19440    19441 1
   20262    19440    19463 1
   20263    19440    19464 1
   20264    19441    19442 1
   20265    19441    19465 1
   20266    19441    19466 1
   20267    19442    19443 1
   20268    19442    19467 1
   20269    19442    19468 1
   20270    19443    19444 1
   20271    19443    19469 1
   20272    19443    19470 1
   20273    19444    19445 1
   20274    19444    19471 1
   20275    19444    19472 1
   20276    19445    19446 1
   20277    19445    19473 1
   20278    19445    19474 1
   20279    19446    19447 1
   20280    19446    19475 1
   20281    19446    19476 1
   20282    19447    19448 1
   20283    19447    19477 1
   20284    19447    19478 1
   20285    19448    19479 1
   20286    19448    19480 1
   20287    19448    19481 1
   20288    19482    19483 1
   20289    19482    19489 1
   20290    19482    19505 1
   20291    19482    19554 1
   20292    19483    19484 1
   20293    19483    19487 1
   20294    19484    19485 1
   20295    19484    19488 1
   20296    19485    19486 1
   20297    19486    19487 1
   20298    19487    19493 1
   20299    19488    19489 1
   20300    19488    19492 1
   20301    19489    19490 1
   20302    19490    19491 1
   20303    19490    19494 1
   20304    19491    19492 1
   20305    19491    19503 1
   20306    19495    19496 1
   20307    19495    19503 1
   20308    19496    19497 1
   20309    19496    19504 1
   20310    19497    19498 1
   20311    19497    19607 1
   20312    19498    19499 1
   20313    19498    19502 1
   20314    19499    19500 1
   20315    19500    19501 1
   20316    19501    19502 1
   20317    19502    19503 1
   20318    19505    19506 1
   20319    19505    19521 1
   20320    19505    19522 1
   20321    19506    19507 1
   20322    19506    19523 1
   20323    19506    19524 1
   20324    19507    19508 1
   20325    19507    19525 1
   20326    19507    19526 1
   20327    19508    19509 1
   20328    19508    19527 1
   20329    19508    19528 1
   20330    19509    19510 1
   20331    19509    19529 1
   20332    19509    19530 1
   20333    19510    19511 1
   20334    19510    19531 1
   20335    19510    19532 1
   20336    19511    19512 1
   20337    19511    19533 1
   20338    19511    19534 1
   20339    19512    19513 1
   20340    19512    19535 1
   20341    19512    19536 1
   20342    19513    19514 1
   20343    19513    19537 1
   20344    19513    19538 1
   20345    19514    19515 1
   20346    19514    19539 1
   20347    19514    19540 1
   20348    19515    19516 1
   20349    19515    19541 1
   20350    19515    19542 1
   20351    19516    19517 1
   20352    19516    19543 1
   20353    19516    19544 1
   20354    19517    19518 1
   20355    19517    19545 1
   20356    19517    19546 1
   20357    19518    19519 1
   20358    19518    19547 1
   20359    19518    19548 1
   20360    19519    19520 1
   20361    19519    19549 1
   20362    19519    19550 1
   20363    19520    19551 1
   20364    19520    19552 1
   20365    19520    19553 1
   20366    19554    19555 1
   20367    19554    19570 1
   20368    19554    19571 1
   20369    19555    19556 1
   20370    19555    19572 1
   20371    19555    19573 1
   20372    19556    19557 1
   20373    19556    19574 1
   20374    19556    19575 1
   20375    19557    19558 1
   20376    19557    19576 1
   20377    19557    19577 1
   20378    19558    19559 1
   20379    19558    19578 1
   20380    19558    19579 1
   20381    19559    19560 1
   20382    19559    19580 1
   20383    19559    19581 1
   20384    19560    19561 1
   20385    19560    19582 1
   20386    19560    19583 1
   20387    19561    19562 1
   20388    19561    19584 1
   20389    19561    19585 1
   20390    19562    19563 1
   20391    19562    19586 1
   20392    19562    19587 1
   20393    19563    19564 1
   20394    19563    19588 1
   20395    19563    19589 1
   20396    19564    19565 1
   20397    19564    19590 1
   20398    19564    19591 1
   20399    19565    19566 1
   20400    19565    19592 1
   20401    19565    19593 1
   20402    19566    19567 1
   20403    19566    19594 1
   20404    19566    19595 1
   20405    19567    19568 1
   20406    19567    19596 1
   20407    19567    19597 1
   20408    19568    19569 1
   20409    19568    19598 1
   20410    19568    19599 1
   20411    19569    19600 1
   20412    19569    19601 1
   20413    19569    19602 1
   20414    19603    19604 1
   20415    19603    19610 1
   20416    19603    19626 1
   20417    19603    19675 1
   20418    19604    19605 1
   20419    19604    19608 1
   20420    19605    19606 1
   20421    19605    19609 1
   20422    19606    19607 1
   20423    19607    19608 1
   20424    19608    19614 1
   20425    19609    19610 1
   20426    19609    19613 1
   20427    19610    19611 1
   20428    19611    19612 1
   20429    19611    19615 1
   20430    19612    19613 1
   20431    19612    19624 1
   20432    19616    19617 1
   20433    19616    19624 1
   20434    19617    19618 1
   20435    19617    19625 1
   20436    19618    19619 1
   20437    19618    19728 1
   20438    19619    19620 1
   20439    19619    19623 1
   20440    19620    19621 1
   20441    19621    19622 1
   20442    19622    19623 1
   20443    19623    19624 1
   20444    19626    19627 1
   20445    19626    19642 1
   20446    19626    19643 1
   20447    19627    19628 1
   20448    19627    19644 1
   20449    19627    19645 1
   20450    19628    19629 1
   20451    19628    19646 1
   20452    19628    19647 1
   20453    19629    19630 1
   20454    19629    19648 1
   20455    19629    19649 1
   20456    19630    19631 1
   20457    19630    19650 1
   20458    19630    19651 1
   20459    19631    19632 1
   20460    19631    19652 1
   20461    19631    19653 1
   20462    19632    19633 1
   20463    19632    19654 1
   20464    19632    19655 1
   20465    19633    19634 1
   20466    19633    19656 1
   20467    19633    19657 1
   20468    19634    19635 1
   20469    19634    19658 1
   20470    19634    19659 1
   20471    19635    19636 1
   20472    19635    19660 1
   20473    19635    19661 1
   20474    19636    19637 1
   20475    19636    19662 1
   20476    19636    19663 1
   20477    19637    19638 1
   20478    19637    19664 1
   20479    19637    19665 1
   20480    19638    19639 1
   20481    19638    19666 1
   20482    19638    19667 1
   20483    19639    19640 1
   20484    19639    19668 1
   20485    19639    19669 1
   20486    19640    19641 1
   20487    19640    19670 1
   20488    19640    19671 1
   20489    19641    19672 1
   20490    19641    19673 1
   20491    19641    19674 1
   20492    19675    19676 1
   20493    19675    19691 1
   20494    19675    19692 1
   20495    19676    19677 1
   20496    19676    19693 1
   20497    19676    19694 1
   20498    19677    19678 1
   20499    19677    19695 1
   20500    19677    19696 1
   20501    19678    19679 1
   20502    19678    19697 1
   20503    19678    19698 1
   20504    19679    19680 1
   20505    19679    19699 1
   20506    19679    19700 1
   20507    19680    19681 1
   20508    19680    19701 1
   20509    19680    19702 1
   20510    19681    19682 1
   20511    19681    19703 1
   20512    19681    19704 1
   20513    19682    19683 1
   20514    19682    19705 1
   20515    19682    19706 1
   20516    19683    19684 1
   20517    19683    19707 1
   20518    19683    19708 1
   20519    19684    19685 1
   20520    19684    19709 1
   20521    19684    19710 1
   20522    19685    19686 1
   20523    19685    19711 1
   20524    19685    19712 1
   20525    19686    19687 1
   20526    19686    19713 1
   20527    19686    19714 1
   20528    19687    19688 1
   20529    19687    19715 1
   20530    19687    19716 1
   20531    19688    19689 1
   20532    19688    19717 1
   20533    19688    19718 1
   20534    19689    19690 1
   20535    19689    19719 1
   20536    19689    19720 1
   20537    19690    19721 1
   20538    19690    19722 1
   20539    19690    19723 1
   20540    19724    19725 1
   20541    19724    19731 1
   20542    19724    19747 1
   20543    19724    19796 1
   20544    19725    19726 1
   20545    19725    19729 1
   20546    19726    19727 1
   20547    19726    19730 1
   20548    19727    19728 1
   20549    19728    19729 1
   20550    19729    19735 1
   20551    19730    19731 1
   20552    19730    19734 1
   20553    19731    19732 1
   20554    19732    19733 1
   20555    19732    19736 1
   20556    19733    19734 1
   20557    19733    19745 1
   20558    19737    19738 1
   20559    19737    19745 1
   20560    19738    19739 1
   20561    19738    19746 1
   20562    19739    19740 1
   20563    19739    19849 1
   20564    19740    19741 1
   20565    19740    19744 1
   20566    19741    19742 1
   20567    19742    19743 1
   20568    19743    19744 1
   20569    19744    19745 1
   20570    19747    19748 1
   20571    19747    19763 1
   20572    19747    19764 1
   20573    19748    19749 1
   20574    19748    19765 1
   20575    19748    19766 1
   20576    19749    19750 1
   20577    19749    19767 1
   20578    19749    19768 1
   20579    19750    19751 1
   20580    19750    19769 1
   20581    19750    19770 1
   20582    19751    19752 1
   20583    19751    19771 1
   20584    19751    19772 1
   20585    19752    19753 1
   20586    19752    19773 1
   20587    19752    19774 1
   20588    19753    19754 1
   20589    19753    19775 1
   20590    19753    19776 1
   20591    19754    19755 1
   20592    19754    19777 1
   20593    19754    19778 1
   20594    19755    19756 1
   20595    19755    19779 1
   20596    19755    19780 1
   20597    19756    19757 1
   20598    19756    19781 1
   20599    19756    19782 1
   20600    19757    19758 1
   20601    19757    19783 1
   20602    19757    19784 1
   20603    19758    19759 1
   20604    19758    19785 1
   20605    19758    19786 1
   20606    19759    19760 1
   20607    19759    19787 1
   20608    19759    19788 1
   20609    19760    19761 1
   20610    19760    19789 1
   20611    19760    19790 1
   20612    19761    19762 1
   20613    19761    19791 1
   20614    19761    19792 1
   20615    19762    19793 1
   20616    19762    19794 1
   20617    19762    19795 1
   20618    19796    19797 1
   20619    19796    19812 1
   20620    19796    19813 1
   20621    19797    19798 1
   20622    19797    19814 1
   20623    19797    19815 1
   20624    19798    19799 1
   20625    19798    19816 1
   20626    19798    19817 1
   20627    19799    19800 1
   20628    19799    19818 1
   20629    19799    19819 1
   20630    19800    19801 1
   20631    19800    19820 1
   20632    19800    19821 1
   20633    19801    19802 1
   20634    19801    19822 1
   20635    19801    19823 1
   20636    19802    19803 1
   20637    19802    19824 1
   20638    19802    19825 1
   20639    19803    19804 1
   20640    19803    19826 1
   20641    19803    19827 1
   20642    19804    19805 1
   20643    19804    19828 1
   20644    19804    19829 1
   20645    19805    19806 1
   20646    19805    19830 1
   20647    19805    19831 1
   20648    19806    19807 1
   20649    19806    19832 1
   20650    19806    19833 1
   20651    19807    19808 1
   20652    19807    19834 1
   20653    19807    19835 1
   20654    19808    19809 1
   20655    19808    19836 1
   20656    19808    19837 1
   20657    19809    19810 1
   20658    19809    19838 1
   20659    19809    19839 1
   20660    19810    19811 1
   20661    19810    19840 1
   20662    19810    19841 1
   20663    19811    19842 1
   20664    19811    19843 1
   20665    19811    19844 1
   20666    19845    19846 1
   20667    19845    19852 1
   20668    19845    19868 1
   20669    19845    19917 1
   20670    19846    19847 1
   20671    19846    19850 1
   20672    19847    19848 1
   20673    19847    19851 1
   20674    19848    19849 1
   20675    19849    19850 1
   20676    19850    19856 1
   20677    19851    19852 1
   20678    19851    19855 1
   20679    19852    19853 1
   20680    19853    19854 1
   20681    19853    19857 1
   20682    19854    19855 1
   20683    19854    19866 1
   20684    19858    19859 1
   20685    19858    19866 1
   20686    19859    19860 1
   20687    19859    19867 1
   20688    19860    19861 1
   20689    19860    19970 1
   20690    19861    19862 1
   20691    19861    19865 1
   20692    19862    19863 1
   20693    19863    19864 1
   20694    19864    19865 1
   20695    19865    19866 1
   20696    19868    19869 1
   20697    19868    19884 1
   20698    19868    19885 1
   20699    19869    19870 1
   20700    19869    19886 1
   20701    19869    19887 1
   20702    19870    19871 1
   20703    19870    19888 1
   20704    19870    19889 1
   20705    19871    19872 1
   20706    19871    19890 1
   20707    19871    19891 1
   20708    19872    19873 1
   20709    19872    19892 1
   20710    19872    19893 1
   20711    19873    19874 1
   20712    19873    19894 1
   20713    19873    19895 1
   20714    19874    19875 1
   20715    19874    19896 1
   20716    19874    19897 1
   20717    19875    19876 1
   20718    19875    19898 1
   20719    19875    19899 1
   20720    19876    19877 1
   20721    19876    19900 1
   20722    19876    19901 1
   20723    19877    19878 1
   20724    19877    19902 1
   20725    19877    19903 1
   20726    19878    19879 1
   20727    19878    19904 1
   20728    19878    19905 1
   20729    19879    19880 1
   20730    19879    19906 1
   20731    19879    19907 1
   20732    19880    19881 1
   20733    19880    19908 1
   20734    19880    19909 1
   20735    19881    19882 1
   20736    19881    19910 1
   20737    19881    19911 1
   20738    19882    19883 1
   20739    19882    19912 1
   20740    19882    19913 1
   20741    19883    19914 1
   20742    19883    19915 1
   20743    19883    19916 1
   20744    19917    19918 1
   20745    19917    19933 1
   20746    19917    19934 1
   20747    19918    19919 1
   20748    19918    19935 1
   20749    19918    19936 1
   20750    19919    19920 1
   20751    19919    19937 1
   20752    19919    19938 1
   20753    19920    19921 1
   20754    19920    19939 1
   20755    19920    19940 1
   20756    19921    19922 1
   20757    19921    19941 1
   20758    19921    19942 1
   20759    19922    19923 1
   20760    19922    19943 1
   20761    19922    19944 1
   20762    19923    19924 1
   20763    19923    19945 1
   20764    19923    19946 1
   20765    19924    19925 1
   20766    19924    19947 1
   20767    19924    19948 1
   20768    19925    19926 1
   20769    19925    19949 1
   20770    19925    19950 1
   20771    19926    19927 1
   20772    19926    19951 1
   20773    19926    19952 1
   20774    19927    19928 1
   20775    19927    19953 1
   20776    19927    19954 1
   20777    19928    19929 1
   20778    19928    19955 1
   20779    19928    19956 1
   20780    19929    19930 1
   20781    19929    19957 1
   20782    19929    19958 1
   20783    19930    19931 1
   20784    19930    19959 1
   20785    19930    19960 1
   20786    19931    19932 1
   20787    19931    19961 1
   20788    19931    19962 1
   20789    19932    19963 1
   20790    19932    19964 1
   20791    19932    19965 1
   20792    19966    19967 1
   20793    19966    19973 1
   20794    19966    19989 1
   20795    19966    20038 1
   20796    19967    19968 1
   20797    19967    19971 1
   20798    19968    19969 1
   20799    19968    19972 1
   20800    19969    19970 1
   20801    19970    19971 1
   20802    19971    19977 1
   20803    19972    19973 1
   20804    19972    19976 1
   20805    19973    19974 1
   20806    19974    19975 1
   20807    19974    19978 1
   20808    19975    19976 1
   20809    19975    19987 1
   20810    19979    19980 1
   20811    19979    19987 1
   20812    19980    19981 1
   20813    19980    19988 1
   20814    19981    19982 1
   20815    19981    20091 1
   20816    19982    19983 1
   20817    19982    19986 1
   20818    19983    19984 1
   20819    19984    19985 1
   20820    19985    19986 1
   20821    19986    19987 1
   20822    19989    19990 1
   20823    19989    20005 1
   20824    19989    20006 1
   20825    19990    19991 1
   20826    19990    20007 1
   20827    19990    20008 1
   20828    19991    19992 1
   20829    19991    20009 1
   20830    19991    20010 1
   20831    19992    19993 1
   20832    19992    20011 1
   20833    19992    20012 1
   20834    19993    19994 1
   20835    19993    20013 1
   20836    19993    20014 1
   20837    19994    19995 1
   20838    19994    20015 1
   20839    19994    20016 1
   20840    19995    19996 1
   20841    19995    20017 1
   20842    19995    20018 1
   20843    19996    19997 1
   20844    19996    20019 1
   20845    19996    20020 1
   20846    19997    19998 1
   20847    19997    20021 1
   20848    19997    20022 1
   20849    19998    19999 1
   20850    19998    20023 1
   20851    19998    20024 1
   20852    19999    20000 1
   20853    19999    20025 1
   20854    19999    20026 1
   20855    20000    20001 1
   20856    20000    20027 1
   20857    20000    20028 1
   20858    20001    20002 1
   20859    20001    20029 1
   20860    20001    20030 1
   20861    20002    20003 1
   20862    20002    20031 1
   20863    20002    20032 1
   20864    20003    20004 1
   20865    20003    20033 1
   20866    20003    20034 1
   20867    20004    20035 1
   20868    20004    20036 1
   20869    20004    20037 1
   20870    20038    20039 1
   20871    20038    20054 1
   20872    20038    20055 1
   20873    20039    20040 1
   20874    20039    20056 1
   20875    20039    20057 1
   20876    20040    20041 1
   20877    20040    20058 1
   20878    20040    20059 1
   20879    20041    20042 1
   20880    20041    20060 1
   20881    20041    20061 1
   20882    20042    20043 1
   20883    20042    20062 1
   20884    20042    20063 1
   20885    20043    20044 1
   20886    20043    20064 1
   20887    20043    20065 1
   20888    20044    20045 1
   20889    20044    20066 1
   20890    20044    20067 1
   20891    20045    20046 1
   20892    20045    20068 1
   20893    20045    20069 1
   20894    20046    20047 1
   20895    20046    20070 1
   20896    20046    20071 1
   20897    20047    20048 1
   20898    20047    20072 1
   20899    20047    20073 1
   20900    20048    20049 1
   20901    20048    20074 1
   20902    20048    20075 1
   20903    20049    20050 1
   20904    20049    20076 1
   20905    20049    20077 1
   20906    20050    20051 1
   20907    20050    20078 1
   20908    20050    20079 1
   20909    20051    20052 1
   20910    20051    20080 1
   20911    20051    20081 1
   20912    20052    20053 1
   20913    20052    20082 1
   20914    20052    20083 1
   20915    20053    20084 1
   20916    20053    20085 1
   20917    20053    20086 1
   20918    20087    20088 1
   20919    20087    20094 1
   20920    20087    20110 1
   20921    20087    20159 1
   20922    20088    20089 1
   20923    20088    20092 1
   20924    20089    20090 1
   20925    20089    20093 1
   20926    20090    20091 1
   20927    20091    20092 1
   20928    20092    20098 1
   20929    20093    20094 1
   20930    20093    20097 1
   20931    20094    20095 1
   20932    20095    20096 1
   20933    20095    20099 1
   20934    20096    20097 1
   20935    20096    20108 1
   20936    20100    20101 1
   20937    20100    20108 1
   20938    20101    20102 1
   20939    20101    20109 1
   20940    20102    20103 1
   20941    20102    20212 1
   20942    20103    20104 1
   20943    20103    20107 1
   20944    20104    20105 1
   20945    20105    20106 1
   20946    20106    20107 1
   20947    20107    20108 1
   20948    20110    20111 1
   20949    20110    20126 1
   20950    20110    20127 1
   20951    20111    20112 1
   20952    20111    20128 1
   20953    20111    20129 1
   20954    20112    20113 1
   20955    20112    20130 1
   20956    20112    20131 1
   20957    20113    20114 1
   20958    20113    20132 1
   20959    20113    20133 1
   20960    20114    20115 1
   20961    20114    20134 1
   20962    20114    20135 1
   20963    20115    20116 1
   20964    20115    20136 1
   20965    20115    20137 1
   20966    20116    20117 1
   20967    20116    20138 1
   20968    20116    20139 1
   20969    20117    20118 1
   20970    20117    20140 1
   20971    20117    20141 1
   20972    20118    20119 1
   20973    20118    20142 1
   20974    20118    20143 1
   20975    20119    20120 1
   20976    20119    20144 1
   20977    20119    20145 1
   20978    20120    20121 1
   20979    20120    20146 1
   20980    20120    20147 1
   20981    20121    20122 1
   20982    20121    20148 1
   20983    20121    20149 1
   20984    20122    20123 1
   20985    20122    20150 1
   20986    20122    20151 1
   20987    20123    20124 1
   20988    20123    20152 1
   20989    20123    20153 1
   20990    20124    20125 1
   20991    20124    20154 1
   20992    20124    20155 1
   20993    20125    20156 1
   20994    20125    20157 1
   20995    20125    20158 1
   20996    20159    20160 1
   20997    20159    20175 1
   20998    20159    20176 1
   20999    20160    20161 1
   21000    20160    20177 1
   21001    20160    20178 1
   21002    20161    20162 1
   21003    20161    20179 1
   21004    20161    20180 1
   21005    20162    20163 1
   21006    20162    20181 1
   21007    20162    20182 1
   21008    20163    20164 1
   21009    20163    20183 1
   21010    20163    20184 1
   21011    20164    20165 1
   21012    20164    20185 1
   21013    20164    20186 1
   21014    20165    20166 1
   21015    20165    20187 1
   21016    20165    20188 1
   21017    20166    20167 1
   21018    20166    20189 1
   21019    20166    20190 1
   21020    20167    20168 1
   21021    20167    20191 1
   21022    20167    20192 1
   21023    20168    20169 1
   21024    20168    20193 1
   21025    20168    20194 1
   21026    20169    20170 1
   21027    20169    20195 1
   21028    20169    20196 1
   21029    20170    20171 1
   21030    20170    20197 1
   21031    20170    20198 1
   21032    20171    20172 1
   21033    20171    20199 1
   21034    20171    20200 1
   21035    20172    20173 1
   21036    20172    20201 1
   21037    20172    20202 1
   21038    20173    20174 1
   21039    20173    20203 1
   21040    20173    20204 1
   21041    20174    20205 1
   21042    20174    20206 1
   21043    20174    20207 1
   21044    20208    20209 1
   21045    20208    20215 1
   21046    20208    20231 1
   21047    20208    20280 1
   21048    20209    20210 1
   21049    20209    20213 1
   21050    20210    20211 1
   21051    20210    20214 1
   21052    20211    20212 1
   21053    20212    20213 1
   21054    20213    20219 1
   21055    20214    20215 1
   21056    20214    20218 1
   21057    20215    20216 1
   21058    20216    20217 1
   21059    20216    20220 1
   21060    20217    20218 1
   21061    20217    20229 1
   21062    20221    20222 1
   21063    20221    20229 1
   21064    20222    20223 1
   21065    20222    20230 1
   21066    20223    20224 1
   21067    20223    20333 1
   21068    20224    20225 1
   21069    20224    20228 1
   21070    20225    20226 1
   21071    20226    20227 1
   21072    20227    20228 1
   21073    20228    20229 1
   21074    20231    20232 1
   21075    20231    20247 1
   21076    20231    20248 1
   21077    20232    20233 1
   21078    20232    20249 1
   21079    20232    20250 1
   21080    20233    20234 1
   21081    20233    20251 1
   21082    20233    20252 1
   21083    20234    20235 1
   21084    20234    20253 1
   21085    20234    20254 1
   21086    20235    20236 1
   21087    20235    20255 1
   21088    20235    20256 1
   21089    20236    20237 1
   21090    20236    20257 1
   21091    20236    20258 1
   21092    20237    20238 1
   21093    20237    20259 1
   21094    20237    20260 1
   21095    20238    20239 1
   21096    20238    20261 1
   21097    20238    20262 1
   21098    20239    20240 1
   21099    20239    20263 1
   21100    20239    20264 1
   21101    20240    20241 1
   21102    20240    20265 1
   21103    20240    20266 1
   21104    20241    20242 1
   21105    20241    20267 1
   21106    20241    20268 1
   21107    20242    20243 1
   21108    20242    20269 1
   21109    20242    20270 1
   21110    20243    20244 1
   21111    20243    20271 1
   21112    20243    20272 1
   21113    20244    20245 1
   21114    20244    20273 1
   21115    20244    20274 1
   21116    20245    20246 1
   21117    20245    20275 1
   21118    20245    20276 1
   21119    20246    20277 1
   21120    20246    20278 1
   21121    20246    20279 1
   21122    20280    20281 1
   21123    20280    20296 1
   21124    20280    20297 1
   21125    20281    20282 1
   21126    20281    20298 1
   21127    20281    20299 1
   21128    20282    20283 1
   21129    20282    20300 1
   21130    20282    20301 1
   21131    20283    20284 1
   21132    20283    20302 1
   21133    20283    20303 1
   21134    20284    20285 1
   21135    20284    20304 1
   21136    20284    20305 1
   21137    20285    20286 1
   21138    20285    20306 1
   21139    20285    20307 1
   21140    20286    20287 1
   21141    20286    20308 1
   21142    20286    20309 1
   21143    20287    20288 1
   21144    20287    20310 1
   21145    20287    20311 1
   21146    20288    20289 1
   21147    20288    20312 1
   21148    20288    20313 1
   21149    20289    20290 1
   21150    20289    20314 1
   21151    20289    20315 1
   21152    20290    20291 1
   21153    20290    20316 1
   21154    20290    20317 1
   21155    20291    20292 1
   21156    20291    20318 1
   21157    20291    20319 1
   21158    20292    20293 1
   21159    20292    20320 1
   21160    20292    20321 1
   21161    20293    20294 1
   21162    20293    20322 1
   21163    20293    20323 1
   21164    20294    20295 1
   21165    20294    20324 1
   21166    20294    20325 1
   21167    20295    20326 1
   21168    20295    20327 1
   21169    20295    20328 1
   21170    20329    20330 1
   21171    20329    20336 1
   21172    20329    20352 1
   21173    20329    20401 1
   21174    20330    20331 1
   21175    20330    20334 1
   21176    20331    20332 1
   21177    20331    20335 1
   21178    20332    20333 1
   21179    20333    20334 1
   21180    20334    20340 1
   21181    20335    20336 1
   21182    20335    20339 1
   21183    20336    20337 1
   21184    20337    20338 1
   21185    20337    20341 1
   21186    20338    20339 1
   21187    20338    20350 1
   21188    20342    20343 1
   21189    20342    20350 1
   21190    20343    20344 1
   21191    20343    20351 1
   21192    20344    20345 1
   21193    20344    20454 1
   21194    20345    20346 1
   21195    20345    20349 1
   21196    20346    20347 1
   21197    20347    20348 1
   21198    20348    20349 1
   21199    20349    20350 1
   21200    20352    20353 1
   21201    20352    20368 1
   21202    20352    20369 1
   21203    20353    20354 1
   21204    20353    20370 1
   21205    20353    20371 1
   21206    20354    20355 1
   21207    20354    20372 1
   21208    20354    20373 1
   21209    20355    20356 1
   21210    20355    20374 1
   21211    20355    20375 1
   21212    20356    20357 1
   21213    20356    20376 1
   21214    20356    20377 1
   21215    20357    20358 1
   21216    20357    20378 1
   21217    20357    20379 1
   21218    20358    20359 1
   21219    20358    20380 1
   21220    20358    20381 1
   21221    20359    20360 1
   21222    20359    20382 1
   21223    20359    20383 1
   21224    20360    20361 1
   21225    20360    20384 1
   21226    20360    20385 1
   21227    20361    20362 1
   21228    20361    20386 1
   21229    20361    20387 1
   21230    20362    20363 1
   21231    20362    20388 1
   21232    20362    20389 1
   21233    20363    20364 1
   21234    20363    20390 1
   21235    20363    20391 1
   21236    20364    20365 1
   21237    20364    20392 1
   21238    20364    20393 1
   21239    20365    20366 1
   21240    20365    20394 1
   21241    20365    20395 1
   21242    20366    20367 1
   21243    20366    20396 1
   21244    20366    20397 1
   21245    20367    20398 1
   21246    20367    20399 1
   21247    20367    20400 1
   21248    20401    20402 1
   21249    20401    20417 1
   21250    20401    20418 1
   21251    20402    20403 1
   21252    20402    20419 1
   21253    20402    20420 1
   21254    20403    20404 1
   21255    20403    20421 1
   21256    20403    20422 1
   21257    20404    20405 1
   21258    20404    20423 1
   21259    20404    20424 1
   21260    20405    20406 1
   21261    20405    20425 1
   21262    20405    20426 1
   21263    20406    20407 1
   21264    20406    20427 1
   21265    20406    20428 1
   21266    20407    20408 1
   21267    20407    20429 1
   21268    20407    20430 1
   21269    20408    20409 1
   21270    20408    20431 1
   21271    20408    20432 1
   21272    20409    20410 1
   21273    20409    20433 1
   21274    20409    20434 1
   21275    20410    20411 1
   21276    20410    20435 1
   21277    20410    20436 1
   21278    20411    20412 1
   21279    20411    20437 1
   21280    20411    20438 1
   21281    20412    20413 1
   21282    20412    20439 1
   21283    20412    20440 1
   21284    20413    20414 1
   21285    20413    20441 1
   21286    20413    20442 1
   21287    20414    20415 1
   21288    20414    20443 1
   21289    20414    20444 1
   21290    20415    20416 1
   21291    20415    20445 1
   21292    20415    20446 1
   21293    20416    20447 1
   21294    20416    20448 1
   21295    20416    20449 1
   21296    20450    20451 1
   21297    20450    20457 1
   21298    20450    20473 1
   21299    20450    20522 1
   21300    20451    20452 1
   21301    20451    20455 1
   21302    20452    20453 1
   21303    20452    20456 1
   21304    20453    20454 1
   21305    20454    20455 1
   21306    20455    20461 1
   21307    20456    20457 1
   21308    20456    20460 1
   21309    20457    20458 1
   21310    20458    20459 1
   21311    20458    20462 1
   21312    20459    20460 1
   21313    20459    20471 1
   21314    20463    20464 1
   21315    20463    20471 1
   21316    20464    20465 1
   21317    20464    20472 1
   21318    20465    20466 1
   21319    20465    20575 1
   21320    20466    20467 1
   21321    20466    20470 1
   21322    20467    20468 1
   21323    20468    20469 1
   21324    20469    20470 1
   21325    20470    20471 1
   21326    20473    20474 1
   21327    20473    20489 1
   21328    20473    20490 1
   21329    20474    20475 1
   21330    20474    20491 1
   21331    20474    20492 1
   21332    20475    20476 1
   21333    20475    20493 1
   21334    20475    20494 1
   21335    20476    20477 1
   21336    20476    20495 1
   21337    20476    20496 1
   21338    20477    20478 1
   21339    20477    20497 1
   21340    20477    20498 1
   21341    20478    20479 1
   21342    20478    20499 1
   21343    20478    20500 1
   21344    20479    20480 1
   21345    20479    20501 1
   21346    20479    20502 1
   21347    20480    20481 1
   21348    20480    20503 1
   21349    20480    20504 1
   21350    20481    20482 1
   21351    20481    20505 1
   21352    20481    20506 1
   21353    20482    20483 1
   21354    20482    20507 1
   21355    20482    20508 1
   21356    20483    20484 1
   21357    20483    20509 1
   21358    20483    20510 1
   21359    20484    20485 1
   21360    20484    20511 1
   21361    20484    20512 1
   21362    20485    20486 1
   21363    20485    20513 1
   21364    20485    20514 1
   21365    20486    20487 1
   21366    20486    20515 1
   21367    20486    20516 1
   21368    20487    20488 1
   21369    20487    20517 1
   21370    20487    20518 1
   21371    20488    20519 1
   21372    20488    20520 1
   21373    20488    20521 1
   21374    20522    20523 1
   21375    20522    20538 1
   21376    20522    20539 1
   21377    20523    20524 1
   21378    20523    20540 1
   21379    20523    20541 1
   21380    20524    20525 1
   21381    20524    20542 1
   21382    20524    20543 1
   21383    20525    20526 1
   21384    20525    20544 1
   21385    20525    20545 1
   21386    20526    20527 1
   21387    20526    20546 1
   21388    20526    20547 1
   21389    20527    20528 1
   21390    20527    20548 1
   21391    20527    20549 1
   21392    20528    20529 1
   21393    20528    20550 1
   21394    20528    20551 1
   21395    20529    20530 1
   21396    20529    20552 1
   21397    20529    20553 1
   21398    20530    20531 1
   21399    20530    20554 1
   21400    20530    20555 1
   21401    20531    20532 1
   21402    20531    20556 1
   21403    20531    20557 1
   21404    20532    20533 1
   21405    20532    20558 1
   21406    20532    20559 1
   21407    20533    20534 1
   21408    20533    20560 1
   21409    20533    20561 1
   21410    20534    20535 1
   21411    20534    20562 1
   21412    20534    20563 1
   21413    20535    20536 1
   21414    20535    20564 1
   21415    20535    20565 1
   21416    20536    20537 1
   21417    20536    20566 1
   21418    20536    20567 1
   21419    20537    20568 1
   21420    20537    20569 1
   21421    20537    20570 1
   21422    20571    20572 1
   21423    20571    20578 1
   21424    20571    20594 1
   21425    20571    20643 1
   21426    20572    20573 1
   21427    20572    20576 1
   21428    20573    20574 1
   21429    20573    20577 1
   21430    20574    20575 1
   21431    20575    20576 1
   21432    20576    20582 1
   21433    20577    20578 1
   21434    20577    20581 1
   21435    20578    20579 1
   21436    20579    20580 1
   21437    20579    20583 1
   21438    20580    20581 1
   21439    20580    20592 1
   21440    20584    20585 1
   21441    20584    20592 1
   21442    20585    20586 1
   21443    20585    20593 1
   21444    20586    20587 1
   21445    20586    20696 1
   21446    20587    20588 1
   21447    20587    20591 1
   21448    20588    20589 1
   21449    20589    20590 1
   21450    20590    20591 1
   21451    20591    20592 1
   21452    20594    20595 1
   21453    20594    20610 1
   21454    20594    20611 1
   21455    20595    20596 1
   21456    20595    20612 1
   21457    20595    20613 1
   21458    20596    20597 1
   21459    20596    20614 1
   21460    20596    20615 1
   21461    20597    20598 1
   21462    20597    20616 1
   21463    20597    20617 1
   21464    20598    20599 1
   21465    20598    20618 1
   21466    20598    20619 1
   21467    20599    20600 1
   21468    20599    20620 1
   21469    20599    20621 1
   21470    20600    20601 1
   21471    20600    20622 1
   21472    20600    20623 1
   21473    20601    20602 1
   21474    20601    20624 1
   21475    20601    20625 1
   21476    20602    20603 1
   21477    20602    20626 1
   21478    20602    20627 1
   21479    20603    20604 1
   21480    20603    20628 1
   21481    20603    20629 1
   21482    20604    20605 1
   21483    20604    20630 1
   21484    20604    20631 1
   21485    20605    20606 1
   21486    20605    20632 1
   21487    20605    20633 1
   21488    20606    20607 1
   21489    20606    20634 1
   21490    20606    20635 1
   21491    20607    20608 1
   21492    20607    20636 1
   21493    20607    20637 1
   21494    20608    20609 1
   21495    20608    20638 1
   21496    20608    20639 1
   21497    20609    20640 1
   21498    20609    20641 1
   21499    20609    20642 1
   21500    20643    20644 1
   21501    20643    20659 1
   21502    20643    20660 1
   21503    20644    20645 1
   21504    20644    20661 1
   21505    20644    20662 1
   21506    20645    20646 1
   21507    20645    20663 1
   21508    20645    20664 1
   21509    20646    20647 1
   21510    20646    20665 1
   21511    20646    20666 1
   21512    20647    20648 1
   21513    20647    20667 1
   21514    20647    20668 1
   21515    20648    20649 1
   21516    20648    20669 1
   21517    20648    20670 1
   21518    20649    20650 1
   21519    20649    20671 1
   21520    20649    20672 1
   21521    20650    20651 1
   21522    20650    20673 1
   21523    20650    20674 1
   21524    20651    20652 1
   21525    20651    20675 1
   21526    20651    20676 1
   21527    20652    20653 1
   21528    20652    20677 1
   21529    20652    20678 1
   21530    20653    20654 1
   21531    20653    20679 1
   21532    20653    20680 1
   21533    20654    20655 1
   21534    20654    20681 1
   21535    20654    20682 1
   21536    20655    20656 1
   21537    20655    20683 1
   21538    20655    20684 1
   21539    20656    20657 1
   21540    20656    20685 1
   21541    20656    20686 1
   21542    20657    20658 1
   21543    20657    20687 1
   21544    20657    20688 1
   21545    20658    20689 1
   21546    20658    20690 1
   21547    20658    20691 1
   21548    20692    20693 1
   21549    20692    20699 1
   21550    20692    20715 1
   21551    20692    20764 1
   21552    20693    20694 1
   21553    20693    20697 1
   21554    20694    20695 1
   21555    20694    20698 1
   21556    20695    20696 1
   21557    20696    20697 1
   21558    20697    20703 1
   21559    20698    20699 1
   21560    20698    20702 1
   21561    20699    20700 1
   21562    20700    20701 1
   21563    20700    20704 1
   21564    20701    20702 1
   21565    20701    20713 1
   21566    20705    20706 1
   21567    20705    20713 1
   21568    20706    20707 1
   21569    20706    20714 1
   21570    20707    20708 1
   21571    20707    20817 1
   21572    20708    20709 1
   21573    20708    20712 1
   21574    20709    20710 1
   21575    20710    20711 1
   21576    20711    20712 1
   21577    20712    20713 1
   21578    20715    20716 1
   21579    20715    20731 1
   21580    20715    20732 1
   21581    20716    20717 1
   21582    20716    20733 1
   21583    20716    20734 1
   21584    20717    20718 1
   21585    20717    20735 1
   21586    20717    20736 1
   21587    20718    20719 1
   21588    20718    20737 1
   21589    20718    20738 1
   21590    20719    20720 1
   21591    20719    20739 1
   21592    20719    20740 1
   21593    20720    20721 1
   21594    20720    20741 1
   21595    20720    20742 1
   21596    20721    20722 1
   21597    20721    20743 1
   21598    20721    20744 1
   21599    20722    20723 1
   21600    20722    20745 1
   21601    20722    20746 1
   21602    20723    20724 1
   21603    20723    20747 1
   21604    20723    20748 1
   21605    20724    20725 1
   21606    20724    20749 1
   21607    20724    20750 1
   21608    20725    20726 1
   21609    20725    20751 1
   21610    20725    20752 1
   21611    20726    20727 1
   21612    20726    20753 1
   21613    20726    20754 1
   21614    20727    20728 1
   21615    20727    20755 1
   21616    20727    20756 1
   21617    20728    20729 1
   21618    20728    20757 1
   21619    20728    20758 1
   21620    20729    20730 1
   21621    20729    20759 1
   21622    20729    20760 1
   21623    20730    20761 1
   21624    20730    20762 1
   21625    20730    20763 1
   21626    20764    20765 1
   21627    20764    20780 1
   21628    20764    20781 1
   21629    20765    20766 1
   21630    20765    20782 1
   21631    20765    20783 1
   21632    20766    20767 1
   21633    20766    20784 1
   21634    20766    20785 1
   21635    20767    20768 1
   21636    20767    20786 1
   21637    20767    20787 1
   21638    20768    20769 1
   21639    20768    20788 1
   21640    20768    20789 1
   21641    20769    20770 1
   21642    20769    20790 1
   21643    20769    20791 1
   21644    20770    20771 1
   21645    20770    20792 1
   21646    20770    20793 1
   21647    20771    20772 1
   21648    20771    20794 1
   21649    20771    20795 1
   21650    20772    20773 1
   21651    20772    20796 1
   21652    20772    20797 1
   21653    20773    20774 1
   21654    20773    20798 1
   21655    20773    20799 1
   21656    20774    20775 1
   21657    20774    20800 1
   21658    20774    20801 1
   21659    20775    20776 1
   21660    20775    20802 1
   21661    20775    20803 1
   21662    20776    20777 1
   21663    20776    20804 1
   21664    20776    20805 1
   21665    20777    20778 1
   21666    20777    20806 1
   21667    20777    20807 1
   21668    20778    20779 1
   21669    20778    20808 1
   21670    20778    20809 1
   21671    20779    20810 1
   21672    20779    20811 1
   21673    20779    20812 1
   21674    20813    20814 1
   21675    20813    20820 1
   21676    20813    20836 1
   21677    20813    20885 1
   21678    20814    20815 1
   21679    20814    20818 1
   21680    20815    20816 1
   21681    20815    20819 1
   21682    20816    20817 1
   21683    20817    20818 1
   21684    20818    20824 1
   21685    20819    20820 1
   21686    20819    20823 1
   21687    20820    20821 1
   21688    20821    20822 1
   21689    20821    20825 1
   21690    20822    20823 1
   21691    20822    20834 1
   21692    20826    20827 1
   21693    20826    20834 1
   21694    20827    20828 1
   21695    20827    20835 1
   21696    20828    20829 1
   21697    20828    20938 1
   21698    20829    20830 1
   21699    20829    20833 1
   21700    20830    20831 1
   21701    20831    20832 1
   21702    20832    20833 1
   21703    20833    20834 1
   21704    20836    20837 1
   21705    20836    20852 1
   21706    20836    20853 1
   21707    20837    20838 1
   21708    20837    20854 1
   21709    20837    20855 1
   21710    20838    20839 1
   21711    20838    20856 1
   21712    20838    20857 1
   21713    20839    20840 1
   21714    20839    20858 1
   21715    20839    20859 1
   21716    20840    20841 1
   21717    20840    20860 1
   21718    20840    20861 1
   21719    20841    20842 1
   21720    20841    20862 1
   21721    20841    20863 1
   21722    20842    20843 1
   21723    20842    20864 1
   21724    20842    20865 1
   21725    20843    20844 1
   21726    20843    20866 1
   21727    20843    20867 1
   21728    20844    20845 1
   21729    20844    20868 1
   21730    20844    20869 1
   21731    20845    20846 1
   21732    20845    20870 1
   21733    20845    20871 1
   21734    20846    20847 1
   21735    20846    20872 1
   21736    20846    20873 1
   21737    20847    20848 1
   21738    20847    20874 1
   21739    20847    20875 1
   21740    20848    20849 1
   21741    20848    20876 1
   21742    20848    20877 1
   21743    20849    20850 1
   21744    20849    20878 1
   21745    20849    20879 1
   21746    20850    20851 1
   21747    20850    20880 1
   21748    20850    20881 1
   21749    20851    20882 1
   21750    20851    20883 1
   21751    20851    20884 1
   21752    20885    20886 1
   21753    20885    20901 1
   21754    20885    20902 1
   21755    20886    20887 1
   21756    20886    20903 1
   21757    20886    20904 1
   21758    20887    20888 1
   21759    20887    20905 1
   21760    20887    20906 1
   21761    20888    20889 1
   21762    20888    20907 1
   21763    20888    20908 1
   21764    20889    20890 1
   21765    20889    20909 1
   21766    20889    20910 1
   21767    20890    20891 1
   21768    20890    20911 1
   21769    20890    20912 1
   21770    20891    20892 1
   21771    20891    20913 1
   21772    20891    20914 1
   21773    20892    20893 1
   21774    20892    20915 1
   21775    20892    20916 1
   21776    20893    20894 1
   21777    20893    20917 1
   21778    20893    20918 1
   21779    20894    20895 1
   21780    20894    20919 1
   21781    20894    20920 1
   21782    20895    20896 1
   21783    20895    20921 1
   21784    20895    20922 1
   21785    20896    20897 1
   21786    20896    20923 1
   21787    20896    20924 1
   21788    20897    20898 1
   21789    20897    20925 1
   21790    20897    20926 1
   21791    20898    20899 1
   21792    20898    20927 1
   21793    20898    20928 1
   21794    20899    20900 1
   21795    20899    20929 1
   21796    20899    20930 1
   21797    20900    20931 1
   21798    20900    20932 1
   21799    20900    20933 1
   21800    20934    20935 1
   21801    20934    20941 1
   21802    20934    20957 1
   21803    20934    21006 1
   21804    20935    20936 1
   21805    20935    20939 1
   21806    20936    20937 1
   21807    20936    20940 1
   21808    20937    20938 1
   21809    20938    20939 1
   21810    20939    20945 1
   21811    20940    20941 1
   21812    20940    20944 1
   21813    20941    20942 1
   21814    20942    20943 1
   21815    20942    20946 1
   21816    20943    20944 1
   21817    20943    20955 1
   21818    20947    20948 1
   21819    20947    20955 1
   21820    20948    20949 1
   21821    20948    20956 1
   21822    20949    20950 1
   21823    20949    21059 1
   21824    20950    20951 1
   21825    20950    20954 1
   21826    20951    20952 1
   21827    20952    20953 1
   21828    20953    20954 1
   21829    20954    20955 1
   21830    20957    20958 1
   21831    20957    20973 1
   21832    20957    20974 1
   21833    20958    20959 1
   21834    20958    20975 1
   21835    20958    20976 1
   21836    20959    20960 1
   21837    20959    20977 1
   21838    20959    20978 1
   21839    20960    20961 1
   21840    20960    20979 1
   21841    20960    20980 1
   21842    20961    20962 1
   21843    20961    20981 1
   21844    20961    20982 1
   21845    20962    20963 1
   21846    20962    20983 1
   21847    20962    20984 1
   21848    20963    20964 1
   21849    20963    20985 1
   21850    20963    20986 1
   21851    20964    20965 1
   21852    20964    20987 1
   21853    20964    20988 1
   21854    20965    20966 1
   21855    20965    20989 1
   21856    20965    20990 1
   21857    20966    20967 1
   21858    20966    20991 1
   21859    20966    20992 1
   21860    20967    20968 1
   21861    20967    20993 1
   21862    20967    20994 1
   21863    20968    20969 1
   21864    20968    20995 1
   21865    20968    20996 1
   21866    20969    20970 1
   21867    20969    20997 1
   21868    20969    20998 1
   21869    20970    20971 1
   21870    20970    20999 1
   21871    20970    21000 1
   21872    20971    20972 1
   21873    20971    21001 1
   21874    20971    21002 1
   21875    20972    21003 1
   21876    20972    21004 1
   21877    20972    21005 1
   21878    21006    21007 1
   21879    21006    21022 1
   21880    21006    21023 1
   21881    21007    21008 1
   21882    21007    21024 1
   21883    21007    21025 1
   21884    21008    21009 1
   21885    21008    21026 1
   21886    21008    21027 1
   21887    21009    21010 1
   21888    21009    21028 1
   21889    21009    21029 1
   21890    21010    21011 1
   21891    21010    21030 1
   21892    21010    21031 1
   21893    21011    21012 1
   21894    21011    21032 1
   21895    21011    21033 1
   21896    21012    21013 1
   21897    21012    21034 1
   21898    21012    21035 1
   21899    21013    21014 1
   21900    21013    21036 1
   21901    21013    21037 1
   21902    21014    21015 1
   21903    21014    21038 1
   21904    21014    21039 1
   21905    21015    21016 1
   21906    21015    21040 1
   21907    21015    21041 1
   21908    21016    21017 1
   21909    21016    21042 1
   21910    21016    21043 1
   21911    21017    21018 1
   21912    21017    21044 1
   21913    21017    21045 1
   21914    21018    21019 1
   21915    21018    21046 1
   21916    21018    21047 1
   21917    21019    21020 1
   21918    21019    21048 1
   21919    21019    21049 1
   21920    21020    21021 1
   21921    21020    21050 1
   21922    21020    21051 1
   21923    21021    21052 1
   21924    21021    21053 1
   21925    21021    21054 1
   21926    21055    21056 1
   21927    21055    21062 1
   21928    21055    21078 1
   21929    21055    21127 1
   21930    21056    21057 1
   21931    21056    21060 1
   21932    21057    21058 1
   21933    21057    21061 1
   21934    21058    21059 1
   21935    21059    21060 1
   21936    21060    21066 1
   21937    21061    21062 1
   21938    21061    21065 1
   21939    21062    21063 1
   21940    21063    21064 1
   21941    21063    21067 1
   21942    21064    21065 1
   21943    21064    21076 1
   21944    21068    21069 1
   21945    21068    21076 1
   21946    21069    21070 1
   21947    21069    21077 1
   21948    21070    21071 1
   21949    21070    21180 1
   21950    21071    21072 1
   21951    21071    21075 1
   21952    21072    21073 1
   21953    21073    21074 1
   21954    21074    21075 1
   21955    21075    21076 1
   21956    21078    21079 1
   21957    21078    21094 1
   21958    21078    21095 1
   21959    21079    21080 1
   21960    21079    21096 1
   21961    21079    21097 1
   21962    21080    21081 1
   21963    21080    21098 1
   21964    21080    21099 1
   21965    21081    21082 1
   21966    21081    21100 1
   21967    21081    21101 1
   21968    21082    21083 1
   21969    21082    21102 1
   21970    21082    21103 1
   21971    21083    21084 1
   21972    21083    21104 1
   21973    21083    21105 1
   21974    21084    21085 1
   21975    21084    21106 1
   21976    21084    21107 1
   21977    21085    21086 1
   21978    21085    21108 1
   21979    21085    21109 1
   21980    21086    21087 1
   21981    21086    21110 1
   21982    21086    21111 1
   21983    21087    21088 1
   21984    21087    21112 1
   21985    21087    21113 1
   21986    21088    21089 1
   21987    21088    21114 1
   21988    21088    21115 1
   21989    21089    21090 1
   21990    21089    21116 1
   21991    21089    21117 1
   21992    21090    21091 1
   21993    21090    21118 1
   21994    21090    21119 1
   21995    21091    21092 1
   21996    21091    21120 1
   21997    21091    21121 1
   21998    21092    21093 1
   21999    21092    21122 1
   22000    21092    21123 1
   22001    21093    21124 1
   22002    21093    21125 1
   22003    21093    21126 1
   22004    21127    21128 1
   22005    21127    21143 1
   22006    21127    21144 1
   22007    21128    21129 1
   22008    21128    21145 1
   22009    21128    21146 1
   22010    21129    21130 1
   22011    21129    21147 1
   22012    21129    21148 1
   22013    21130    21131 1
   22014    21130    21149 1
   22015    21130    21150 1
   22016    21131    21132 1
   22017    21131    21151 1
   22018    21131    21152 1
   22019    21132    21133 1
   22020    21132    21153 1
   22021    21132    21154 1
   22022    21133    21134 1
   22023    21133    21155 1
   22024    21133    21156 1
   22025    21134    21135 1
   22026    21134    21157 1
   22027    21134    21158 1
   22028    21135    21136 1
   22029    21135    21159 1
   22030    21135    21160 1
   22031    21136    21137 1
   22032    21136    21161 1
   22033    21136    21162 1
   22034    21137    21138 1
   22035    21137    21163 1
   22036    21137    21164 1
   22037    21138    21139 1
   22038    21138    21165 1
   22039    21138    21166 1
   22040    21139    21140 1
   22041    21139    21167 1
   22042    21139    21168 1
   22043    21140    21141 1
   22044    21140    21169 1
   22045    21140    21170 1
   22046    21141    21142 1
   22047    21141    21171 1
   22048    21141    21172 1
   22049    21142    21173 1
   22050    21142    21174 1
   22051    21142    21175 1
   22052    21176    21177 1
   22053    21176    21183 1
   22054    21176    21199 1
   22055    21176    21248 1
   22056    21177    21178 1
   22057    21177    21181 1
   22058    21178    21179 1
   22059    21178    21182 1
   22060    21179    21180 1
   22061    21180    21181 1
   22062    21181    21187 1
   22063    21182    21183 1
   22064    21182    21186 1
   22065    21183    21184 1
   22066    21184    21185 1
   22067    21184    21188 1
   22068    21185    21186 1
   22069    21185    21197 1
   22070    21189    21190 1
   22071    21189    21197 1
   22072    21190    21191 1
   22073    21190    21198 1
   22074    21191    21192 1
   22075    21191    21301 1
   22076    21192    21193 1
   22077    21192    21196 1
   22078    21193    21194 1
   22079    21194    21195 1
   22080    21195    21196 1
   22081    21196    21197 1
   22082    21199    21200 1
   22083    21199    21215 1
   22084    21199    21216 1
   22085    21200    21201 1
   22086    21200    21217 1
   22087    21200    21218 1
   22088    21201    21202 1
   22089    21201    21219 1
   22090    21201    21220 1
   22091    21202    21203 1
   22092    21202    21221 1
   22093    21202    21222 1
   22094    21203    21204 1
   22095    21203    21223 1
   22096    21203    21224 1
   22097    21204    21205 1
   22098    21204    21225 1
   22099    21204    21226 1
   22100    21205    21206 1
   22101    21205    21227 1
   22102    21205    21228 1
   22103    21206    21207 1
   22104    21206    21229 1
   22105    21206    21230 1
   22106    21207    21208 1
   22107    21207    21231 1
   22108    21207    21232 1
   22109    21208    21209 1
   22110    21208    21233 1
   22111    21208    21234 1
   22112    21209    21210 1
   22113    21209    21235 1
   22114    21209    21236 1
   22115    21210    21211 1
   22116    21210    21237 1
   22117    21210    21238 1
   22118    21211    21212 1
   22119    21211    21239 1
   22120    21211    21240 1
   22121    21212    21213 1
   22122    21212    21241 1
   22123    21212    21242 1
   22124    21213    21214 1
   22125    21213    21243 1
   22126    21213    21244 1
   22127    21214    21245 1
   22128    21214    21246 1
   22129    21214    21247 1
   22130    21248    21249 1
   22131    21248    21264 1
   22132    21248    21265 1
   22133    21249    21250 1
   22134    21249    21266 1
   22135    21249    21267 1
   22136    21250    21251 1
   22137    21250    21268 1
   22138    21250    21269 1
   22139    21251    21252 1
   22140    21251    21270 1
   22141    21251    21271 1
   22142    21252    21253 1
   22143    21252    21272 1
   22144    21252    21273 1
   22145    21253    21254 1
   22146    21253    21274 1
   22147    21253    21275 1
   22148    21254    21255 1
   22149    21254    21276 1
   22150    21254    21277 1
   22151    21255    21256 1
   22152    21255    21278 1
   22153    21255    21279 1
   22154    21256    21257 1
   22155    21256    21280 1
   22156    21256    21281 1
   22157    21257    21258 1
   22158    21257    21282 1
   22159    21257    21283 1
   22160    21258    21259 1
   22161    21258    21284 1
   22162    21258    21285 1
   22163    21259    21260 1
   22164    21259    21286 1
   22165    21259    21287 1
   22166    21260    21261 1
   22167    21260    21288 1
   22168    21260    21289 1
   22169    21261    21262 1
   22170    21261    21290 1
   22171    21261    21291 1
   22172    21262    21263 1
   22173    21262    21292 1
   22174    21262    21293 1
   22175    21263    21294 1
   22176    21263    21295 1
   22177    21263    21296 1
   22178    21297    21298 1
   22179    21297    21304 1
   22180    21297    21320 1
   22181    21297    21369 1
   22182    21298    21299 1
   22183    21298    21302 1
   22184    21299    21300 1
   22185    21299    21303 1
   22186    21300    21301 1
   22187    21301    21302 1
   22188    21302    21308 1
   22189    21303    21304 1
   22190    21303    21307 1
   22191    21304    21305 1
   22192    21305    21306 1
   22193    21305    21309 1
   22194    21306    21307 1
   22195    21306    21318 1
   22196    21310    21311 1
   22197    21310    21318 1
   22198    21311    21312 1
   22199    21311    21319 1
   22200    21312    21313 1
   22201    21312    21422 1
   22202    21313    21314 1
   22203    21313    21317 1
   22204    21314    21315 1
   22205    21315    21316 1
   22206    21316    21317 1
   22207    21317    21318 1
   22208    21320    21321 1
   22209    21320    21336 1
   22210    21320    21337 1
   22211    21321    21322 1
   22212    21321    21338 1
   22213    21321    21339 1
   22214    21322    21323 1
   22215    21322    21340 1
   22216    21322    21341 1
   22217    21323    21324 1
   22218    21323    21342 1
   22219    21323    21343 1
   22220    21324    21325 1
   22221    21324    21344 1
   22222    21324    21345 1
   22223    21325    21326 1
   22224    21325    21346 1
   22225    21325    21347 1
   22226    21326    21327 1
   22227    21326    21348 1
   22228    21326    21349 1
   22229    21327    21328 1
   22230    21327    21350 1
   22231    21327    21351 1
   22232    21328    21329 1
   22233    21328    21352 1
   22234    21328    21353 1
   22235    21329    21330 1
   22236    21329    21354 1
   22237    21329    21355 1
   22238    21330    21331 1
   22239    21330    21356 1
   22240    21330    21357 1
   22241    21331    21332 1
   22242    21331    21358 1
   22243    21331    21359 1
   22244    21332    21333 1
   22245    21332    21360 1
   22246    21332    21361 1
   22247    21333    21334 1
   22248    21333    21362 1
   22249    21333    21363 1
   22250    21334    21335 1
   22251    21334    21364 1
   22252    21334    21365 1
   22253    21335    21366 1
   22254    21335    21367 1
   22255    21335    21368 1
   22256    21369    21370 1
   22257    21369    21385 1
   22258    21369    21386 1
   22259    21370    21371 1
   22260    21370    21387 1
   22261    21370    21388 1
   22262    21371    21372 1
   22263    21371    21389 1
   22264    21371    21390 1
   22265    21372    21373 1
   22266    21372    21391 1
   22267    21372    21392 1
   22268    21373    21374 1
   22269    21373    21393 1
   22270    21373    21394 1
   22271    21374    21375 1
   22272    21374    21395 1
   22273    21374    21396 1
   22274    21375    21376 1
   22275    21375    21397 1
   22276    21375    21398 1
   22277    21376    21377 1
   22278    21376    21399 1
   22279    21376    21400 1
   22280    21377    21378 1
   22281    21377    21401 1
   22282    21377    21402 1
   22283    21378    21379 1
   22284    21378    21403 1
   22285    21378    21404 1
   22286    21379    21380 1
   22287    21379    21405 1
   22288    21379    21406 1
   22289    21380    21381 1
   22290    21380    21407 1
   22291    21380    21408 1
   22292    21381    21382 1
   22293    21381    21409 1
   22294    21381    21410 1
   22295    21382    21383 1
   22296    21382    21411 1
   22297    21382    21412 1
   22298    21383    21384 1
   22299    21383    21413 1
   22300    21383    21414 1
   22301    21384    21415 1
   22302    21384    21416 1
   22303    21384    21417 1
   22304    21418    21419 1
   22305    21418    21425 1
   22306    21418    21441 1
   22307    21418    21490 1
   22308    21419    21420 1
   22309    21419    21423 1
   22310    21420    21421 1
   22311    21420    21424 1
   22312    21421    21422 1
   22313    21422    21423 1
   22314    21423    21429 1
   22315    21424    21425 1
   22316    21424    21428 1
   22317    21425    21426 1
   22318    21426    21427 1
   22319    21426    21430 1
   22320    21427    21428 1
   22321    21427    21439 1
   22322    21431    21432 1
   22323    21431    21439 1
   22324    21432    21433 1
   22325    21432    21440 1
   22326    21433    21434 1
   22327    21433    21543 1
   22328    21434    21435 1
   22329    21434    21438 1
   22330    21435    21436 1
   22331    21436    21437 1
   22332    21437    21438 1
   22333    21438    21439 1
   22334    21441    21442 1
   22335    21441    21457 1
   22336    21441    21458 1
   22337    21442    21443 1
   22338    21442    21459 1
   22339    21442    21460 1
   22340    21443    21444 1
   22341    21443    21461 1
   22342    21443    21462 1
   22343    21444    21445 1
   22344    21444    21463 1
   22345    21444    21464 1
   22346    21445    21446 1
   22347    21445    21465 1
   22348    21445    21466 1
   22349    21446    21447 1
   22350    21446    21467 1
   22351    21446    21468 1
   22352    21447    21448 1
   22353    21447    21469 1
   22354    21447    21470 1
   22355    21448    21449 1
   22356    21448    21471 1
   22357    21448    21472 1
   22358    21449    21450 1
   22359    21449    21473 1
   22360    21449    21474 1
   22361    21450    21451 1
   22362    21450    21475 1
   22363    21450    21476 1
   22364    21451    21452 1
   22365    21451    21477 1
   22366    21451    21478 1
   22367    21452    21453 1
   22368    21452    21479 1
   22369    21452    21480 1
   22370    21453    21454 1
   22371    21453    21481 1
   22372    21453    21482 1
   22373    21454    21455 1
   22374    21454    21483 1
   22375    21454    21484 1
   22376    21455    21456 1
   22377    21455    21485 1
   22378    21455    21486 1
   22379    21456    21487 1
   22380    21456    21488 1
   22381    21456    21489 1
   22382    21490    21491 1
   22383    21490    21506 1
   22384    21490    21507 1
   22385    21491    21492 1
   22386    21491    21508 1
   22387    21491    21509 1
   22388    21492    21493 1
   22389    21492    21510 1
   22390    21492    21511 1
   22391    21493    21494 1
   22392    21493    21512 1
   22393    21493    21513 1
   22394    21494    21495 1
   22395    21494    21514 1
   22396    21494    21515 1
   22397    21495    21496 1
   22398    21495    21516 1
   22399    21495    21517 1
   22400    21496    21497 1
   22401    21496    21518 1
   22402    21496    21519 1
   22403    21497    21498 1
   22404    21497    21520 1
   22405    21497    21521 1
   22406    21498    21499 1
   22407    21498    21522 1
   22408    21498    21523 1
   22409    21499    21500 1
   22410    21499    21524 1
   22411    21499    21525 1
   22412    21500    21501 1
   22413    21500    21526 1
   22414    21500    21527 1
   22415    21501    21502 1
   22416    21501    21528 1
   22417    21501    21529 1
   22418    21502    21503 1
   22419    21502    21530 1
   22420    21502    21531 1
   22421    21503    21504 1
   22422    21503    21532 1
   22423    21503    21533 1
   22424    21504    21505 1
   22425    21504    21534 1
   22426    21504    21535 1
   22427    21505    21536 1
   22428    21505    21537 1
   22429    21505    21538 1
   22430    21539    21540 1
   22431    21539    21546 1
   22432    21539    21562 1
   22433    21539    21611 1
   22434    21540    21541 1
   22435    21540    21544 1
   22436    21541    21542 1
   22437    21541    21545 1
   22438    21542    21543 1
   22439    21543    21544 1
   22440    21544    21550 1
   22441    21545    21546 1
   22442    21545    21549 1
   22443    21546    21547 1
   22444    21547    21548 1
   22445    21547    21551 1
   22446    21548    21549 1
   22447    21548    21560 1
   22448    21552    21553 1
   22449    21552    21560 1
   22450    21553    21554 1
   22451    21553    21561 1
   22452    21554    21555 1
   22453    21554    21664 1
   22454    21555    21556 1
   22455    21555    21559 1
   22456    21556    21557 1
   22457    21557    21558 1
   22458    21558    21559 1
   22459    21559    21560 1
   22460    21562    21563 1
   22461    21562    21578 1
   22462    21562    21579 1
   22463    21563    21564 1
   22464    21563    21580 1
   22465    21563    21581 1
   22466    21564    21565 1
   22467    21564    21582 1
   22468    21564    21583 1
   22469    21565    21566 1
   22470    21565    21584 1
   22471    21565    21585 1
   22472    21566    21567 1
   22473    21566    21586 1
   22474    21566    21587 1
   22475    21567    21568 1
   22476    21567    21588 1
   22477    21567    21589 1
   22478    21568    21569 1
   22479    21568    21590 1
   22480    21568    21591 1
   22481    21569    21570 1
   22482    21569    21592 1
   22483    21569    21593 1
   22484    21570    21571 1
   22485    21570    21594 1
   22486    21570    21595 1
   22487    21571    21572 1
   22488    21571    21596 1
   22489    21571    21597 1
   22490    21572    21573 1
   22491    21572    21598 1
   22492    21572    21599 1
   22493    21573    21574 1
   22494    21573    21600 1
   22495    21573    21601 1
   22496    21574    21575 1
   22497    21574    21602 1
   22498    21574    21603 1
   22499    21575    21576 1
   22500    21575    21604 1
   22501    21575    21605 1
   22502    21576    21577 1
   22503    21576    21606 1
   22504    21576    21607 1
   22505    21577    21608 1
   22506    21577    21609 1
   22507    21577    21610 1
   22508    21611    21612 1
   22509    21611    21627 1
   22510    21611    21628 1
   22511    21612    21613 1
   22512    21612    21629 1
   22513    21612    21630 1
   22514    21613    21614 1
   22515    21613    21631 1
   22516    21613    21632 1
   22517    21614    21615 1
   22518    21614    21633 1
   22519    21614    21634 1
   22520    21615    21616 1
   22521    21615    21635 1
   22522    21615    21636 1
   22523    21616    21617 1
   22524    21616    21637 1
   22525    21616    21638 1
   22526    21617    21618 1
   22527    21617    21639 1
   22528    21617    21640 1
   22529    21618    21619 1
   22530    21618    21641 1
   22531    21618    21642 1
   22532    21619    21620 1
   22533    21619    21643 1
   22534    21619    21644 1
   22535    21620    21621 1
   22536    21620    21645 1
   22537    21620    21646 1
   22538    21621    21622 1
   22539    21621    21647 1
   22540    21621    21648 1
   22541    21622    21623 1
   22542    21622    21649 1
   22543    21622    21650 1
   22544    21623    21624 1
   22545    21623    21651 1
   22546    21623    21652 1
   22547    21624    21625 1
   22548    21624    21653 1
   22549    21624    21654 1
   22550    21625    21626 1
   22551    21625    21655 1
   22552    21625    21656 1
   22553    21626    21657 1
   22554    21626    21658 1
   22555    21626    21659 1
   22556    21660    21661 1
   22557    21660    21667 1
   22558    21660    21683 1
   22559    21660    21732 1
   22560    21661    21662 1
   22561    21661    21665 1
   22562    21662    21663 1
   22563    21662    21666 1
   22564    21663    21664 1
   22565    21664    21665 1
   22566    21665    21671 1
   22567    21666    21667 1
   22568    21666    21670 1
   22569    21667    21668 1
   22570    21668    21669 1
   22571    21668    21672 1
   22572    21669    21670 1
   22573    21669    21681 1
   22574    21673    21674 1
   22575    21673    21681 1
   22576    21674    21675 1
   22577    21674    21682 1
   22578    21675    21676 1
   22579    21675    21785 1
   22580    21676    21677 1
   22581    21676    21680 1
   22582    21677    21678 1
   22583    21678    21679 1
   22584    21679    21680 1
   22585    21680    21681 1
   22586    21683    21684 1
   22587    21683    21699 1
   22588    21683    21700 1
   22589    21684    21685 1
   22590    21684    21701 1
   22591    21684    21702 1
   22592    21685    21686 1
   22593    21685    21703 1
   22594    21685    21704 1
   22595    21686    21687 1
   22596    21686    21705 1
   22597    21686    21706 1
   22598    21687    21688 1
   22599    21687    21707 1
   22600    21687    21708 1
   22601    21688    21689 1
   22602    21688    21709 1
   22603    21688    21710 1
   22604    21689    21690 1
   22605    21689    21711 1
   22606    21689    21712 1
   22607    21690    21691 1
   22608    21690    21713 1
   22609    21690    21714 1
   22610    21691    21692 1
   22611    21691    21715 1
   22612    21691    21716 1
   22613    21692    21693 1
   22614    21692    21717 1
   22615    21692    21718 1
   22616    21693    21694 1
   22617    21693    21719 1
   22618    21693    21720 1
   22619    21694    21695 1
   22620    21694    21721 1
   22621    21694    21722 1
   22622    21695    21696 1
   22623    21695    21723 1
   22624    21695    21724 1
   22625    21696    21697 1
   22626    21696    21725 1
   22627    21696    21726 1
   22628    21697    21698 1
   22629    21697    21727 1
   22630    21697    21728 1
   22631    21698    21729 1
   22632    21698    21730 1
   22633    21698    21731 1
   22634    21732    21733 1
   22635    21732    21748 1
   22636    21732    21749 1
   22637    21733    21734 1
   22638    21733    21750 1
   22639    21733    21751 1
   22640    21734    21735 1
   22641    21734    21752 1
   22642    21734    21753 1
   22643    21735    21736 1
   22644    21735    21754 1
   22645    21735    21755 1
   22646    21736    21737 1
   22647    21736    21756 1
   22648    21736    21757 1
   22649    21737    21738 1
   22650    21737    21758 1
   22651    21737    21759 1
   22652    21738    21739 1
   22653    21738    21760 1
   22654    21738    21761 1
   22655    21739    21740 1
   22656    21739    21762 1
   22657    21739    21763 1
   22658    21740    21741 1
   22659    21740    21764 1
   22660    21740    21765 1
   22661    21741    21742 1
   22662    21741    21766 1
   22663    21741    21767 1
   22664    21742    21743 1
   22665    21742    21768 1
   22666    21742    21769 1
   22667    21743    21744 1
   22668    21743    21770 1
   22669    21743    21771 1
   22670    21744    21745 1
   22671    21744    21772 1
   22672    21744    21773 1
   22673    21745    21746 1
   22674    21745    21774 1
   22675    21745    21775 1
   22676    21746    21747 1
   22677    21746    21776 1
   22678    21746    21777 1
   22679    21747    21778 1
   22680    21747    21779 1
   22681    21747    21780 1
   22682    21781    21782 1
   22683    21781    21788 1
   22684    21781    21804 1
   22685    21781    21853 1
   22686    21782    21783 1
   22687    21782    21786 1
   22688    21783    21784 1
   22689    21783    21787 1
   22690    21784    21785 1
   22691    21785    21786 1
   22692    21786    21792 1
   22693    21787    21788 1
   22694    21787    21791 1
   22695    21788    21789 1
   22696    21789    21790 1
   22697    21789    21793 1
   22698    21790    21791 1
   22699    21790    21802 1
   22700    21794    21795 1
   22701    21794    21802 1
   22702    21795    21796 1
   22703    21795    21803 1
   22704    21796    21797 1
   22705    21796    21906 1
   22706    21797    21798 1
   22707    21797    21801 1
   22708    21798    21799 1
   22709    21799    21800 1
   22710    21800    21801 1
   22711    21801    21802 1
   22712    21804    21805 1
   22713    21804    21820 1
   22714    21804    21821 1
   22715    21805    21806 1
   22716    21805    21822 1
   22717    21805    21823 1
   22718    21806    21807 1
   22719    21806    21824 1
   22720    21806    21825 1
   22721    21807    21808 1
   22722    21807    21826 1
   22723    21807    21827 1
   22724    21808    21809 1
   22725    21808    21828 1
   22726    21808    21829 1
   22727    21809    21810 1
   22728    21809    21830 1
   22729    21809    21831 1
   22730    21810    21811 1
   22731    21810    21832 1
   22732    21810    21833 1
   22733    21811    21812 1
   22734    21811    21834 1
   22735    21811    21835 1
   22736    21812    21813 1
   22737    21812    21836 1
   22738    21812    21837 1
   22739    21813    21814 1
   22740    21813    21838 1
   22741    21813    21839 1
   22742    21814    21815 1
   22743    21814    21840 1
   22744    21814    21841 1
   22745    21815    21816 1
   22746    21815    21842 1
   22747    21815    21843 1
   22748    21816    21817 1
   22749    21816    21844 1
   22750    21816    21845 1
   22751    21817    21818 1
   22752    21817    21846 1
   22753    21817    21847 1
   22754    21818    21819 1
   22755    21818    21848 1
   22756    21818    21849 1
   22757    21819    21850 1
   22758    21819    21851 1
   22759    21819    21852 1
   22760    21853    21854 1
   22761    21853    21869 1
   22762    21853    21870 1
   22763    21854    21855 1
   22764    21854    21871 1
   22765    21854    21872 1
   22766    21855    21856 1
   22767    21855    21873 1
   22768    21855    21874 1
   22769    21856    21857 1
   22770    21856    21875 1
   22771    21856    21876 1
   22772    21857    21858 1
   22773    21857    21877 1
   22774    21857    21878 1
   22775    21858    21859 1
   22776    21858    21879 1
   22777    21858    21880 1
   22778    21859    21860 1
   22779    21859    21881 1
   22780    21859    21882 1
   22781    21860    21861 1
   22782    21860    21883 1
   22783    21860    21884 1
   22784    21861    21862 1
   22785    21861    21885 1
   22786    21861    21886 1
   22787    21862    21863 1
   22788    21862    21887 1
   22789    21862    21888 1
   22790    21863    21864 1
   22791    21863    21889 1
   22792    21863    21890 1
   22793    21864    21865 1
   22794    21864    21891 1
   22795    21864    21892 1
   22796    21865    21866 1
   22797    21865    21893 1
   22798    21865    21894 1
   22799    21866    21867 1
   22800    21866    21895 1
   22801    21866    21896 1
   22802    21867    21868 1
   22803    21867    21897 1
   22804    21867    21898 1
   22805    21868    21899 1
   22806    21868    21900 1
   22807    21868    21901 1
   22808    21902    21903 1
   22809    21902    21909 1
   22810    21902    21925 1
   22811    21902    21974 1
   22812    21903    21904 1
   22813    21903    21907 1
   22814    21904    21905 1
   22815    21904    21908 1
   22816    21905    21906 1
   22817    21906    21907 1
   22818    21907    21913 1
   22819    21908    21909 1
   22820    21908    21912 1
   22821    21909    21910 1
   22822    21910    21911 1
   22823    21910    21914 1
   22824    21911    21912 1
   22825    21911    21923 1
   22826    21915    21916 1
   22827    21915    21923 1
   22828    21916    21917 1
   22829    21916    21924 1
   22830    21917    21918 1
   22831    21917    22027 1
   22832    21918    21919 1
   22833    21918    21922 1
   22834    21919    21920 1
   22835    21920    21921 1
   22836    21921    21922 1
   22837    21922    21923 1
   22838    21925    21926 1
   22839    21925    21941 1
   22840    21925    21942 1
   22841    21926    21927 1
   22842    21926    21943 1
   22843    21926    21944 1
   22844    21927    21928 1
   22845    21927    21945 1
   22846    21927    21946 1
   22847    21928    21929 1
   22848    21928    21947 1
   22849    21928    21948 1
   22850    21929    21930 1
   22851    21929    21949 1
   22852    21929    21950 1
   22853    21930    21931 1
   22854    21930    21951 1
   22855    21930    21952 1
   22856    21931    21932 1
   22857    21931    21953 1
   22858    21931    21954 1
   22859    21932    21933 1
   22860    21932    21955 1
   22861    21932    21956 1
   22862    21933    21934 1
   22863    21933    21957 1
   22864    21933    21958 1
   22865    21934    21935 1
   22866    21934    21959 1
   22867    21934    21960 1
   22868    21935    21936 1
   22869    21935    21961 1
   22870    21935    21962 1
   22871    21936    21937 1
   22872    21936    21963 1
   22873    21936    21964 1
   22874    21937    21938 1
   22875    21937    21965 1
   22876    21937    21966 1
   22877    21938    21939 1
   22878    21938    21967 1
   22879    21938    21968 1
   22880    21939    21940 1
   22881    21939    21969 1
   22882    21939    21970 1
   22883    21940    21971 1
   22884    21940    21972 1
   22885    21940    21973 1
   22886    21974    21975 1
   22887    21974    21990 1
   22888    21974    21991 1
   22889    21975    21976 1
   22890    21975    21992 1
   22891    21975    21993 1
   22892    21976    21977 1
   22893    21976    21994 1
   22894    21976    21995 1
   22895    21977    21978 1
   22896    21977    21996 1
   22897    21977    21997 1
   22898    21978    21979 1
   22899    21978    21998 1
   22900    21978    21999 1
   22901    21979    21980 1
   22902    21979    22000 1
   22903    21979    22001 1
   22904    21980    21981 1
   22905    21980    22002 1
   22906    21980    22003 1
   22907    21981    21982 1
   22908    21981    22004 1
   22909    21981    22005 1
   22910    21982    21983 1
   22911    21982    22006 1
   22912    21982    22007 1
   22913    21983    21984 1
   22914    21983    22008 1
   22915    21983    22009 1
   22916    21984    21985 1
   22917    21984    22010 1
   22918    21984    22011 1
   22919    21985    21986 1
   22920    21985    22012 1
   22921    21985    22013 1
   22922    21986    21987 1
   22923    21986    22014 1
   22924    21986    22015 1
   22925    21987    21988 1
   22926    21987    22016 1
   22927    21987    22017 1
   22928    21988    21989 1
   22929    21988    22018 1
   22930    21988    22019 1
   22931    21989    22020 1
   22932    21989    22021 1
   22933    21989    22022 1
   22934    22023    22024 1
   22935    22023    22030 1
   22936    22023    22046 1
   22937    22023    22095 1
   22938    22024    22025 1
   22939    22024    22028 1
   22940    22025    22026 1
   22941    22025    22029 1
   22942    22026    22027 1
   22943    22027    22028 1
   22944    22028    22034 1
   22945    22029    22030 1
   22946    22029    22033 1
   22947    22030    22031 1
   22948    22031    22032 1
   22949    22031    22035 1
   22950    22032    22033 1
   22951    22032    22044 1
   22952    22036    22037 1
   22953    22036    22044 1
   22954    22037    22038 1
   22955    22037    22045 1
   22956    22038    22039 1
   22957    22038    22148 1
   22958    22039    22040 1
   22959    22039    22043 1
   22960    22040    22041 1
   22961    22041    22042 1
   22962    22042    22043 1
   22963    22043    22044 1
   22964    22046    22047 1
   22965    22046    22062 1
   22966    22046    22063 1
   22967    22047    22048 1
   22968    22047    22064 1
   22969    22047    22065 1
   22970    22048    22049 1
   22971    22048    22066 1
   22972    22048    22067 1
   22973    22049    22050 1
   22974    22049    22068 1
   22975    22049    22069 1
   22976    22050    22051 1
   22977    22050    22070 1
   22978    22050    22071 1
   22979    22051    22052 1
   22980    22051    22072 1
   22981    22051    22073 1
   22982    22052    22053 1
   22983    22052    22074 1
   22984    22052    22075 1
   22985    22053    22054 1
   22986    22053    22076 1
   22987    22053    22077 1
   22988    22054    22055 1
   22989    22054    22078 1
   22990    22054    22079 1
   22991    22055    22056 1
   22992    22055    22080 1
   22993    22055    22081 1
   22994    22056    22057 1
   22995    22056    22082 1
   22996    22056    22083 1
   22997    22057    22058 1
   22998    22057    22084 1
   22999    22057    22085 1
   23000    22058    22059 1
   23001    22058    22086 1
   23002    22058    22087 1
   23003    22059    22060 1
   23004    22059    22088 1
   23005    22059    22089 1
   23006    22060    22061 1
   23007    22060    22090 1
   23008    22060    22091 1
   23009    22061    22092 1
   23010    22061    22093 1
   23011    22061    22094 1
   23012    22095    22096 1
   23013    22095    22111 1
   23014    22095    22112 1
   23015    22096    22097 1
   23016    22096    22113 1
   23017    22096    22114 1
   23018    22097    22098 1
   23019    22097    22115 1
   23020    22097    22116 1
   23021    22098    22099 1
   23022    22098    22117 1
   23023    22098    22118 1
   23024    22099    22100 1
   23025    22099    22119 1
   23026    22099    22120 1
   23027    22100    22101 1
   23028    22100    22121 1
   23029    22100    22122 1
   23030    22101    22102 1
   23031    22101    22123 1
   23032    22101    22124 1
   23033    22102    22103 1
   23034    22102    22125 1
   23035    22102    22126 1
   23036    22103    22104 1
   23037    22103    22127 1
   23038    22103    22128 1
   23039    22104    22105 1
   23040    22104    22129 1
   23041    22104    22130 1
   23042    22105    22106 1
   23043    22105    22131 1
   23044    22105    22132 1
   23045    22106    22107 1
   23046    22106    22133 1
   23047    22106    22134 1
   23048    22107    22108 1
   23049    22107    22135 1
   23050    22107    22136 1
   23051    22108    22109 1
   23052    22108    22137 1
   23053    22108    22138 1
   23054    22109    22110 1
   23055    22109    22139 1
   23056    22109    22140 1
   23057    22110    22141 1
   23058    22110    22142 1
   23059    22110    22143 1
   23060    22144    22145 1
   23061    22144    22151 1
   23062    22144    22167 1
   23063    22144    22216 1
   23064    22145    22146 1
   23065    22145    22149 1
   23066    22146    22147 1
   23067    22146    22150 1
   23068    22147    22148 1
   23069    22148    22149 1
   23070    22149    22155 1
   23071    22150    22151 1
   23072    22150    22154 1
   23073    22151    22152 1
   23074    22152    22153 1
   23075    22152    22156 1
   23076    22153    22154 1
   23077    22153    22165 1
   23078    22157    22158 1
   23079    22157    22165 1
   23080    22158    22159 1
   23081    22158    22166 1
   23082    22159    22160 1
   23083    22159    22269 1
   23084    22160    22161 1
   23085    22160    22164 1
   23086    22161    22162 1
   23087    22162    22163 1
   23088    22163    22164 1
   23089    22164    22165 1
   23090    22167    22168 1
   23091    22167    22183 1
   23092    22167    22184 1
   23093    22168    22169 1
   23094    22168    22185 1
   23095    22168    22186 1
   23096    22169    22170 1
   23097    22169    22187 1
   23098    22169    22188 1
   23099    22170    22171 1
   23100    22170    22189 1
   23101    22170    22190 1
   23102    22171    22172 1
   23103    22171    22191 1
   23104    22171    22192 1
   23105    22172    22173 1
   23106    22172    22193 1
   23107    22172    22194 1
   23108    22173    22174 1
   23109    22173    22195 1
   23110    22173    22196 1
   23111    22174    22175 1
   23112    22174    22197 1
   23113    22174    22198 1
   23114    22175    22176 1
   23115    22175    22199 1
   23116    22175    22200 1
   23117    22176    22177 1
   23118    22176    22201 1
   23119    22176    22202 1
   23120    22177    22178 1
   23121    22177    22203 1
   23122    22177    22204 1
   23123    22178    22179 1
   23124    22178    22205 1
   23125    22178    22206 1
   23126    22179    22180 1
   23127    22179    22207 1
   23128    22179    22208 1
   23129    22180    22181 1
   23130    22180    22209 1
   23131    22180    22210 1
   23132    22181    22182 1
   23133    22181    22211 1
   23134    22181    22212 1
   23135    22182    22213 1
   23136    22182    22214 1
   23137    22182    22215 1
   23138    22216    22217 1
   23139    22216    22232 1
   23140    22216    22233 1
   23141    22217    22218 1
   23142    22217    22234 1
   23143    22217    22235 1
   23144    22218    22219 1
   23145    22218    22236 1
   23146    22218    22237 1
   23147    22219    22220 1
   23148    22219    22238 1
   23149    22219    22239 1
   23150    22220    22221 1
   23151    22220    22240 1
   23152    22220    22241 1
   23153    22221    22222 1
   23154    22221    22242 1
   23155    22221    22243 1
   23156    22222    22223 1
   23157    22222    22244 1
   23158    22222    22245 1
   23159    22223    22224 1
   23160    22223    22246 1
   23161    22223    22247 1
   23162    22224    22225 1
   23163    22224    22248 1
   23164    22224    22249 1
   23165    22225    22226 1
   23166    22225    22250 1
   23167    22225    22251 1
   23168    22226    22227 1
   23169    22226    22252 1
   23170    22226    22253 1
   23171    22227    22228 1
   23172    22227    22254 1
   23173    22227    22255 1
   23174    22228    22229 1
   23175    22228    22256 1
   23176    22228    22257 1
   23177    22229    22230 1
   23178    22229    22258 1
   23179    22229    22259 1
   23180    22230    22231 1
   23181    22230    22260 1
   23182    22230    22261 1
   23183    22231    22262 1
   23184    22231    22263 1
   23185    22231    22264 1
   23186    22265    22266 1
   23187    22265    22272 1
   23188    22265    22288 1
   23189    22265    22337 1
   23190    22266    22267 1
   23191    22266    22270 1
   23192    22267    22268 1
   23193    22267    22271 1
   23194    22268    22269 1
   23195    22269    22270 1
   23196    22270    22276 1
   23197    22271    22272 1
   23198    22271    22275 1
   23199    22272    22273 1
   23200    22273    22274 1
   23201    22273    22277 1
   23202    22274    22275 1
   23203    22274    22286 1
   23204    22278    22279 1
   23205    22278    22286 1
   23206    22279    22280 1
   23207    22279    22287 1
   23208    22280    22281 1
   23209    22280    22390 1
   23210    22281    22282 1
   23211    22281    22285 1
   23212    22282    22283 1
   23213    22283    22284 1
   23214    22284    22285 1
   23215    22285    22286 1
   23216    22288    22289 1
   23217    22288    22304 1
   23218    22288    22305 1
   23219    22289    22290 1
   23220    22289    22306 1
   23221    22289    22307 1
   23222    22290    22291 1
   23223    22290    22308 1
   23224    22290    22309 1
   23225    22291    22292 1
   23226    22291    22310 1
   23227    22291    22311 1
   23228    22292    22293 1
   23229    22292    22312 1
   23230    22292    22313 1
   23231    22293    22294 1
   23232    22293    22314 1
   23233    22293    22315 1
   23234    22294    22295 1
   23235    22294    22316 1
   23236    22294    22317 1
   23237    22295    22296 1
   23238    22295    22318 1
   23239    22295    22319 1
   23240    22296    22297 1
   23241    22296    22320 1
   23242    22296    22321 1
   23243    22297    22298 1
   23244    22297    22322 1
   23245    22297    22323 1
   23246    22298    22299 1
   23247    22298    22324 1
   23248    22298    22325 1
   23249    22299    22300 1
   23250    22299    22326 1
   23251    22299    22327 1
   23252    22300    22301 1
   23253    22300    22328 1
   23254    22300    22329 1
   23255    22301    22302 1
   23256    22301    22330 1
   23257    22301    22331 1
   23258    22302    22303 1
   23259    22302    22332 1
   23260    22302    22333 1
   23261    22303    22334 1
   23262    22303    22335 1
   23263    22303    22336 1
   23264    22337    22338 1
   23265    22337    22353 1
   23266    22337    22354 1
   23267    22338    22339 1
   23268    22338    22355 1
   23269    22338    22356 1
   23270    22339    22340 1
   23271    22339    22357 1
   23272    22339    22358 1
   23273    22340    22341 1
   23274    22340    22359 1
   23275    22340    22360 1
   23276    22341    22342 1
   23277    22341    22361 1
   23278    22341    22362 1
   23279    22342    22343 1
   23280    22342    22363 1
   23281    22342    22364 1
   23282    22343    22344 1
   23283    22343    22365 1
   23284    22343    22366 1
   23285    22344    22345 1
   23286    22344    22367 1
   23287    22344    22368 1
   23288    22345    22346 1
   23289    22345    22369 1
   23290    22345    22370 1
   23291    22346    22347 1
   23292    22346    22371 1
   23293    22346    22372 1
   23294    22347    22348 1
   23295    22347    22373 1
   23296    22347    22374 1
   23297    22348    22349 1
   23298    22348    22375 1
   23299    22348    22376 1
   23300    22349    22350 1
   23301    22349    22377 1
   23302    22349    22378 1
   23303    22350    22351 1
   23304    22350    22379 1
   23305    22350    22380 1
   23306    22351    22352 1
   23307    22351    22381 1
   23308    22351    22382 1
   23309    22352    22383 1
   23310    22352    22384 1
   23311    22352    22385 1
   23312    22386    22387 1
   23313    22386    22393 1
   23314    22386    22409 1
   23315    22386    22458 1
   23316    22387    22388 1
   23317    22387    22391 1
   23318    22388    22389 1
   23319    22388    22392 1
   23320    22389    22390 1
   23321    22390    22391 1
   23322    22391    22397 1
   23323    22392    22393 1
   23324    22392    22396 1
   23325    22393    22394 1
   23326    22394    22395 1
   23327    22394    22398 1
   23328    22395    22396 1
   23329    22395    22407 1
   23330    22399    22400 1
   23331    22399    22407 1
   23332    22400    22401 1
   23333    22400    22408 1
   23334    22401    22402 1
   23335    22401    22511 1
   23336    22402    22403 1
   23337    22402    22406 1
   23338    22403    22404 1
   23339    22404    22405 1
   23340    22405    22406 1
   23341    22406    22407 1
   23342    22409    22410 1
   23343    22409    22425 1
   23344    22409    22426 1
   23345    22410    22411 1
   23346    22410    22427 1
   23347    22410    22428 1
   23348    22411    22412 1
   23349    22411    22429 1
   23350    22411    22430 1
   23351    22412    22413 1
   23352    22412    22431 1
   23353    22412    22432 1
   23354    22413    22414 1
   23355    22413    22433 1
   23356    22413    22434 1
   23357    22414    22415 1
   23358    22414    22435 1
   23359    22414    22436 1
   23360    22415    22416 1
   23361    22415    22437 1
   23362    22415    22438 1
   23363    22416    22417 1
   23364    22416    22439 1
   23365    22416    22440 1
   23366    22417    22418 1
   23367    22417    22441 1
   23368    22417    22442 1
   23369    22418    22419 1
   23370    22418    22443 1
   23371    22418    22444 1
   23372    22419    22420 1
   23373    22419    22445 1
   23374    22419    22446 1
   23375    22420    22421 1
   23376    22420    22447 1
   23377    22420    22448 1
   23378    22421    22422 1
   23379    22421    22449 1
   23380    22421    22450 1
   23381    22422    22423 1
   23382    22422    22451 1
   23383    22422    22452 1
   23384    22423    22424 1
   23385    22423    22453 1
   23386    22423    22454 1
   23387    22424    22455 1
   23388    22424    22456 1
   23389    22424    22457 1
   23390    22458    22459 1
   23391    22458    22474 1
   23392    22458    22475 1
   23393    22459    22460 1
   23394    22459    22476 1
   23395    22459    22477 1
   23396    22460    22461 1
   23397    22460    22478 1
   23398    22460    22479 1
   23399    22461    22462 1
   23400    22461    22480 1
   23401    22461    22481 1
   23402    22462    22463 1
   23403    22462    22482 1
   23404    22462    22483 1
   23405    22463    22464 1
   23406    22463    22484 1
   23407    22463    22485 1
   23408    22464    22465 1
   23409    22464    22486 1
   23410    22464    22487 1
   23411    22465    22466 1
   23412    22465    22488 1
   23413    22465    22489 1
   23414    22466    22467 1
   23415    22466    22490 1
   23416    22466    22491 1
   23417    22467    22468 1
   23418    22467    22492 1
   23419    22467    22493 1
   23420    22468    22469 1
   23421    22468    22494 1
   23422    22468    22495 1
   23423    22469    22470 1
   23424    22469    22496 1
   23425    22469    22497 1
   23426    22470    22471 1
   23427    22470    22498 1
   23428    22470    22499 1
   23429    22471    22472 1
   23430    22471    22500 1
   23431    22471    22501 1
   23432    22472    22473 1
   23433    22472    22502 1
   23434    22472    22503 1
   23435    22473    22504 1
   23436    22473    22505 1
   23437    22473    22506 1
   23438    22507    22508 1
   23439    22507    22514 1
   23440    22507    22530 1
   23441    22507    22579 1
   23442    22508    22509 1
   23443    22508    22512 1
   23444    22509    22510 1
   23445    22509    22513 1
   23446    22510    22511 1
   23447    22511    22512 1
   23448    22512    22518 1
   23449    22513    22514 1
   23450    22513    22517 1
   23451    22514    22515 1
   23452    22515    22516 1
   23453    22515    22519 1
   23454    22516    22517 1
   23455    22516    22528 1
   23456    22520    22521 1
   23457    22520    22528 1
   23458    22521    22522 1
   23459    22521    22529 1
   23460    22522    22523 1
   23461    22522    22632 1
   23462    22523    22524 1
   23463    22523    22527 1
   23464    22524    22525 1
   23465    22525    22526 1
   23466    22526    22527 1
   23467    22527    22528 1
   23468    22530    22531 1
   23469    22530    22546 1
   23470    22530    22547 1
   23471    22531    22532 1
   23472    22531    22548 1
   23473    22531    22549 1
   23474    22532    22533 1
   23475    22532    22550 1
   23476    22532    22551 1
   23477    22533    22534 1
   23478    22533    22552 1
   23479    22533    22553 1
   23480    22534    22535 1
   23481    22534    22554 1
   23482    22534    22555 1
   23483    22535    22536 1
   23484    22535    22556 1
   23485    22535    22557 1
   23486    22536    22537 1
   23487    22536    22558 1
   23488    22536    22559 1
   23489    22537    22538 1
   23490    22537    22560 1
   23491    22537    22561 1
   23492    22538    22539 1
   23493    22538    22562 1
   23494    22538    22563 1
   23495    22539    22540 1
   23496    22539    22564 1
   23497    22539    22565 1
   23498    22540    22541 1
   23499    22540    22566 1
   23500    22540    22567 1
   23501    22541    22542 1
   23502    22541    22568 1
   23503    22541    22569 1
   23504    22542    22543 1
   23505    22542    22570 1
   23506    22542    22571 1
   23507    22543    22544 1
   23508    22543    22572 1
   23509    22543    22573 1
   23510    22544    22545 1
   23511    22544    22574 1
   23512    22544    22575 1
   23513    22545    22576 1
   23514    22545    22577 1
   23515    22545    22578 1
   23516    22579    22580 1
   23517    22579    22595 1
   23518    22579    22596 1
   23519    22580    22581 1
   23520    22580    22597 1
   23521    22580    22598 1
   23522    22581    22582 1
   23523    22581    22599 1
   23524    22581    22600 1
   23525    22582    22583 1
   23526    22582    22601 1
   23527    22582    22602 1
   23528    22583    22584 1
   23529    22583    22603 1
   23530    22583    22604 1
   23531    22584    22585 1
   23532    22584    22605 1
   23533    22584    22606 1
   23534    22585    22586 1
   23535    22585    22607 1
   23536    22585    22608 1
   23537    22586    22587 1
   23538    22586    22609 1
   23539    22586    22610 1
   23540    22587    22588 1
   23541    22587    22611 1
   23542    22587    22612 1
   23543    22588    22589 1
   23544    22588    22613 1
   23545    22588    22614 1
   23546    22589    22590 1
   23547    22589    22615 1
   23548    22589    22616 1
   23549    22590    22591 1
   23550    22590    22617 1
   23551    22590    22618 1
   23552    22591    22592 1
   23553    22591    22619 1
   23554    22591    22620 1
   23555    22592    22593 1
   23556    22592    22621 1
   23557    22592    22622 1
   23558    22593    22594 1
   23559    22593    22623 1
   23560    22593    22624 1
   23561    22594    22625 1
   23562    22594    22626 1
   23563    22594    22627 1
   23564    22628    22629 1
   23565    22628    22635 1
   23566    22628    22651 1
   23567    22628    22700 1
   23568    22629    22630 1
   23569    22629    22633 1
   23570    22630    22631 1
   23571    22630    22634 1
   23572    22631    22632 1
   23573    22632    22633 1
   23574    22633    22639 1
   23575    22634    22635 1
   23576    22634    22638 1
   23577    22635    22636 1
   23578    22636    22637 1
   23579    22636    22640 1
   23580    22637    22638 1
   23581    22637    22649 1
   23582    22641    22642 1
   23583    22641    22649 1
   23584    22642    22643 1
   23585    22642    22650 1
   23586    22643    22644 1
   23587    22643    22753 1
   23588    22644    22645 1
   23589    22644    22648 1
   23590    22645    22646 1
   23591    22646    22647 1
   23592    22647    22648 1
   23593    22648    22649 1
   23594    22651    22652 1
   23595    22651    22667 1
   23596    22651    22668 1
   23597    22652    22653 1
   23598    22652    22669 1
   23599    22652    22670 1
   23600    22653    22654 1
   23601    22653    22671 1
   23602    22653    22672 1
   23603    22654    22655 1
   23604    22654    22673 1
   23605    22654    22674 1
   23606    22655    22656 1
   23607    22655    22675 1
   23608    22655    22676 1
   23609    22656    22657 1
   23610    22656    22677 1
   23611    22656    22678 1
   23612    22657    22658 1
   23613    22657    22679 1
   23614    22657    22680 1
   23615    22658    22659 1
   23616    22658    22681 1
   23617    22658    22682 1
   23618    22659    22660 1
   23619    22659    22683 1
   23620    22659    22684 1
   23621    22660    22661 1
   23622    22660    22685 1
   23623    22660    22686 1
   23624    22661    22662 1
   23625    22661    22687 1
   23626    22661    22688 1
   23627    22662    22663 1
   23628    22662    22689 1
   23629    22662    22690 1
   23630    22663    22664 1
   23631    22663    22691 1
   23632    22663    22692 1
   23633    22664    22665 1
   23634    22664    22693 1
   23635    22664    22694 1
   23636    22665    22666 1
   23637    22665    22695 1
   23638    22665    22696 1
   23639    22666    22697 1
   23640    22666    22698 1
   23641    22666    22699 1
   23642    22700    22701 1
   23643    22700    22716 1
   23644    22700    22717 1
   23645    22701    22702 1
   23646    22701    22718 1
   23647    22701    22719 1
   23648    22702    22703 1
   23649    22702    22720 1
   23650    22702    22721 1
   23651    22703    22704 1
   23652    22703    22722 1
   23653    22703    22723 1
   23654    22704    22705 1
   23655    22704    22724 1
   23656    22704    22725 1
   23657    22705    22706 1
   23658    22705    22726 1
   23659    22705    22727 1
   23660    22706    22707 1
   23661    22706    22728 1
   23662    22706    22729 1
   23663    22707    22708 1
   23664    22707    22730 1
   23665    22707    22731 1
   23666    22708    22709 1
   23667    22708    22732 1
   23668    22708    22733 1
   23669    22709    22710 1
   23670    22709    22734 1
   23671    22709    22735 1
   23672    22710    22711 1
   23673    22710    22736 1
   23674    22710    22737 1
   23675    22711    22712 1
   23676    22711    22738 1
   23677    22711    22739 1
   23678    22712    22713 1
   23679    22712    22740 1
   23680    22712    22741 1
   23681    22713    22714 1
   23682    22713    22742 1
   23683    22713    22743 1
   23684    22714    22715 1
   23685    22714    22744 1
   23686    22714    22745 1
   23687    22715    22746 1
   23688    22715    22747 1
   23689    22715    22748 1
   23690    22749    22750 1
   23691    22749    22756 1
   23692    22749    22772 1
   23693    22749    22821 1
   23694    22750    22751 1
   23695    22750    22754 1
   23696    22751    22752 1
   23697    22751    22755 1
   23698    22752    22753 1
   23699    22753    22754 1
   23700    22754    22760 1
   23701    22755    22756 1
   23702    22755    22759 1
   23703    22756    22757 1
   23704    22757    22758 1
   23705    22757    22761 1
   23706    22758    22759 1
   23707    22758    22770 1
   23708    22762    22763 1
   23709    22762    22770 1
   23710    22763    22764 1
   23711    22763    22771 1
   23712    22764    22765 1
   23713    22764    22874 1
   23714    22765    22766 1
   23715    22765    22769 1
   23716    22766    22767 1
   23717    22767    22768 1
   23718    22768    22769 1
   23719    22769    22770 1
   23720    22772    22773 1
   23721    22772    22788 1
   23722    22772    22789 1
   23723    22773    22774 1
   23724    22773    22790 1
   23725    22773    22791 1
   23726    22774    22775 1
   23727    22774    22792 1
   23728    22774    22793 1
   23729    22775    22776 1
   23730    22775    22794 1
   23731    22775    22795 1
   23732    22776    22777 1
   23733    22776    22796 1
   23734    22776    22797 1
   23735    22777    22778 1
   23736    22777    22798 1
   23737    22777    22799 1
   23738    22778    22779 1
   23739    22778    22800 1
   23740    22778    22801 1
   23741    22779    22780 1
   23742    22779    22802 1
   23743    22779    22803 1
   23744    22780    22781 1
   23745    22780    22804 1
   23746    22780    22805 1
   23747    22781    22782 1
   23748    22781    22806 1
   23749    22781    22807 1
   23750    22782    22783 1
   23751    22782    22808 1
   23752    22782    22809 1
   23753    22783    22784 1
   23754    22783    22810 1
   23755    22783    22811 1
   23756    22784    22785 1
   23757    22784    22812 1
   23758    22784    22813 1
   23759    22785    22786 1
   23760    22785    22814 1
   23761    22785    22815 1
   23762    22786    22787 1
   23763    22786    22816 1
   23764    22786    22817 1
   23765    22787    22818 1
   23766    22787    22819 1
   23767    22787    22820 1
   23768    22821    22822 1
   23769    22821    22837 1
   23770    22821    22838 1
   23771    22822    22823 1
   23772    22822    22839 1
   23773    22822    22840 1
   23774    22823    22824 1
   23775    22823    22841 1
   23776    22823    22842 1
   23777    22824    22825 1
   23778    22824    22843 1
   23779    22824    22844 1
   23780    22825    22826 1
   23781    22825    22845 1
   23782    22825    22846 1
   23783    22826    22827 1
   23784    22826    22847 1
   23785    22826    22848 1
   23786    22827    22828 1
   23787    22827    22849 1
   23788    22827    22850 1
   23789    22828    22829 1
   23790    22828    22851 1
   23791    22828    22852 1
   23792    22829    22830 1
   23793    22829    22853 1
   23794    22829    22854 1
   23795    22830    22831 1
   23796    22830    22855 1
   23797    22830    22856 1
   23798    22831    22832 1
   23799    22831    22857 1
   23800    22831    22858 1
   23801    22832    22833 1
   23802    22832    22859 1
   23803    22832    22860 1
   23804    22833    22834 1
   23805    22833    22861 1
   23806    22833    22862 1
   23807    22834    22835 1
   23808    22834    22863 1
   23809    22834    22864 1
   23810    22835    22836 1
   23811    22835    22865 1
   23812    22835    22866 1
   23813    22836    22867 1
   23814    22836    22868 1
   23815    22836    22869 1
   23816    22870    22871 1
   23817    22870    22877 1
   23818    22870    22893 1
   23819    22870    22942 1
   23820    22871    22872 1
   23821    22871    22875 1
   23822    22872    22873 1
   23823    22872    22876 1
   23824    22873    22874 1
   23825    22874    22875 1
   23826    22875    22881 1
   23827    22876    22877 1
   23828    22876    22880 1
   23829    22877    22878 1
   23830    22878    22879 1
   23831    22878    22882 1
   23832    22879    22880 1
   23833    22879    22891 1
   23834    22883    22884 1
   23835    22883    22891 1
   23836    22884    22885 1
   23837    22884    22892 1
   23838    22885    22886 1
   23839    22885    22995 1
   23840    22886    22887 1
   23841    22886    22890 1
   23842    22887    22888 1
   23843    22888    22889 1
   23844    22889    22890 1
   23845    22890    22891 1
   23846    22893    22894 1
   23847    22893    22909 1
   23848    22893    22910 1
   23849    22894    22895 1
   23850    22894    22911 1
   23851    22894    22912 1
   23852    22895    22896 1
   23853    22895    22913 1
   23854    22895    22914 1
   23855    22896    22897 1
   23856    22896    22915 1
   23857    22896    22916 1
   23858    22897    22898 1
   23859    22897    22917 1
   23860    22897    22918 1
   23861    22898    22899 1
   23862    22898    22919 1
   23863    22898    22920 1
   23864    22899    22900 1
   23865    22899    22921 1
   23866    22899    22922 1
   23867    22900    22901 1
   23868    22900    22923 1
   23869    22900    22924 1
   23870    22901    22902 1
   23871    22901    22925 1
   23872    22901    22926 1
   23873    22902    22903 1
   23874    22902    22927 1
   23875    22902    22928 1
   23876    22903    22904 1
   23877    22903    22929 1
   23878    22903    22930 1
   23879    22904    22905 1
   23880    22904    22931 1
   23881    22904    22932 1
   23882    22905    22906 1
   23883    22905    22933 1
   23884    22905    22934 1
   23885    22906    22907 1
   23886    22906    22935 1
   23887    22906    22936 1
   23888    22907    22908 1
   23889    22907    22937 1
   23890    22907    22938 1
   23891    22908    22939 1
   23892    22908    22940 1
   23893    22908    22941 1
   23894    22942    22943 1
   23895    22942    22958 1
   23896    22942    22959 1
   23897    22943    22944 1
   23898    22943    22960 1
   23899    22943    22961 1
   23900    22944    22945 1
   23901    22944    22962 1
   23902    22944    22963 1
   23903    22945    22946 1
   23904    22945    22964 1
   23905    22945    22965 1
   23906    22946    22947 1
   23907    22946    22966 1
   23908    22946    22967 1
   23909    22947    22948 1
   23910    22947    22968 1
   23911    22947    22969 1
   23912    22948    22949 1
   23913    22948    22970 1
   23914    22948    22971 1
   23915    22949    22950 1
   23916    22949    22972 1
   23917    22949    22973 1
   23918    22950    22951 1
   23919    22950    22974 1
   23920    22950    22975 1
   23921    22951    22952 1
   23922    22951    22976 1
   23923    22951    22977 1
   23924    22952    22953 1
   23925    22952    22978 1
   23926    22952    22979 1
   23927    22953    22954 1
   23928    22953    22980 1
   23929    22953    22981 1
   23930    22954    22955 1
   23931    22954    22982 1
   23932    22954    22983 1
   23933    22955    22956 1
   23934    22955    22984 1
   23935    22955    22985 1
   23936    22956    22957 1
   23937    22956    22986 1
   23938    22956    22987 1
   23939    22957    22988 1
   23940    22957    22989 1
   23941    22957    22990 1
   23942    22991    22992 1
   23943    22991    22998 1
   23944    22991    23014 1
   23945    22991    23063 1
   23946    22992    22993 1
   23947    22992    22996 1
   23948    22993    22994 1
   23949    22993    22997 1
   23950    22994    22995 1
   23951    22995    22996 1
   23952    22996    23002 1
   23953    22997    22998 1
   23954    22997    23001 1
   23955    22998    22999 1
   23956    22999    23000 1
   23957    22999    23003 1
   23958    23000    23001 1
   23959    23000    23012 1
   23960    23004    23005 1
   23961    23004    23012 1
   23962    23005    23006 1
   23963    23005    23013 1
   23964    23006    23007 1
   23965    23006    23116 1
   23966    23007    23008 1
   23967    23007    23011 1
   23968    23008    23009 1
   23969    23009    23010 1
   23970    23010    23011 1
   23971    23011    23012 1
   23972    23014    23015 1
   23973    23014    23030 1
   23974    23014    23031 1
   23975    23015    23016 1
   23976    23015    23032 1
   23977    23015    23033 1
   23978    23016    23017 1
   23979    23016    23034 1
   23980    23016    23035 1
   23981    23017    23018 1
   23982    23017    23036 1
   23983    23017    23037 1
   23984    23018    23019 1
   23985    23018    23038 1
   23986    23018    23039 1
   23987    23019    23020 1
   23988    23019    23040 1
   23989    23019    23041 1
   23990    23020    23021 1
   23991    23020    23042 1
   23992    23020    23043 1
   23993    23021    23022 1
   23994    23021    23044 1
   23995    23021    23045 1
   23996    23022    23023 1
   23997    23022    23046 1
   23998    23022    23047 1
   23999    23023    23024 1
   24000    23023    23048 1
   24001    23023    23049 1
   24002    23024    23025 1
   24003    23024    23050 1
   24004    23024    23051 1
   24005    23025    23026 1
   24006    23025    23052 1
   24007    23025    23053 1
   24008    23026    23027 1
   24009    23026    23054 1
   24010    23026    23055 1
   24011    23027    23028 1
   24012    23027    23056 1
   24013    23027    23057 1
   24014    23028    23029 1
   24015    23028    23058 1
   24016    23028    23059 1
   24017    23029    23060 1
   24018    23029    23061 1
   24019    23029    23062 1
   24020    23063    23064 1
   24021    23063    23079 1
   24022    23063    23080 1
   24023    23064    23065 1
   24024    23064    23081 1
   24025    23064    23082 1
   24026    23065    23066 1
   24027    23065    23083 1
   24028    23065    23084 1
   24029    23066    23067 1
   24030    23066    23085 1
   24031    23066    23086 1
   24032    23067    23068 1
   24033    23067    23087 1
   24034    23067    23088 1
   24035    23068    23069 1
   24036    23068    23089 1
   24037    23068    23090 1
   24038    23069    23070 1
   24039    23069    23091 1
   24040    23069    23092 1
   24041    23070    23071 1
   24042    23070    23093 1
   24043    23070    23094 1
   24044    23071    23072 1
   24045    23071    23095 1
   24046    23071    23096 1
   24047    23072    23073 1
   24048    23072    23097 1
   24049    23072    23098 1
   24050    23073    23074 1
   24051    23073    23099 1
   24052    23073    23100 1
   24053    23074    23075 1
   24054    23074    23101 1
   24055    23074    23102 1
   24056    23075    23076 1
   24057    23075    23103 1
   24058    23075    23104 1
   24059    23076    23077 1
   24060    23076    23105 1
   24061    23076    23106 1
   24062    23077    23078 1
   24063    23077    23107 1
   24064    23077    23108 1
   24065    23078    23109 1
   24066    23078    23110 1
   24067    23078    23111 1
   24068    23112    23113 1
   24069    23112    23119 1
   24070    23112    23135 1
   24071    23112    23184 1
   24072    23113    23114 1
   24073    23113    23117 1
   24074    23114    23115 1
   24075    23114    23118 1
   24076    23115    23116 1
   24077    23116    23117 1
   24078    23117    23123 1
   24079    23118    23119 1
   24080    23118    23122 1
   24081    23119    23120 1
   24082    23120    23121 1
   24083    23120    23124 1
   24084    23121    23122 1
   24085    23121    23133 1
   24086    23125    23126 1
   24087    23125    23133 1
   24088    23126    23127 1
   24089    23126    23134 1
   24090    23127    23128 1
   24091    23127    23237 1
   24092    23128    23129 1
   24093    23128    23132 1
   24094    23129    23130 1
   24095    23130    23131 1
   24096    23131    23132 1
   24097    23132    23133 1
   24098    23135    23136 1
   24099    23135    23151 1
   24100    23135    23152 1
   24101    23136    23137 1
   24102    23136    23153 1
   24103    23136    23154 1
   24104    23137    23138 1
   24105    23137    23155 1
   24106    23137    23156 1
   24107    23138    23139 1
   24108    23138    23157 1
   24109    23138    23158 1
   24110    23139    23140 1
   24111    23139    23159 1
   24112    23139    23160 1
   24113    23140    23141 1
   24114    23140    23161 1
   24115    23140    23162 1
   24116    23141    23142 1
   24117    23141    23163 1
   24118    23141    23164 1
   24119    23142    23143 1
   24120    23142    23165 1
   24121    23142    23166 1
   24122    23143    23144 1
   24123    23143    23167 1
   24124    23143    23168 1
   24125    23144    23145 1
   24126    23144    23169 1
   24127    23144    23170 1
   24128    23145    23146 1
   24129    23145    23171 1
   24130    23145    23172 1
   24131    23146    23147 1
   24132    23146    23173 1
   24133    23146    23174 1
   24134    23147    23148 1
   24135    23147    23175 1
   24136    23147    23176 1
   24137    23148    23149 1
   24138    23148    23177 1
   24139    23148    23178 1
   24140    23149    23150 1
   24141    23149    23179 1
   24142    23149    23180 1
   24143    23150    23181 1
   24144    23150    23182 1
   24145    23150    23183 1
   24146    23184    23185 1
   24147    23184    23200 1
   24148    23184    23201 1
   24149    23185    23186 1
   24150    23185    23202 1
   24151    23185    23203 1
   24152    23186    23187 1
   24153    23186    23204 1
   24154    23186    23205 1
   24155    23187    23188 1
   24156    23187    23206 1
   24157    23187    23207 1
   24158    23188    23189 1
   24159    23188    23208 1
   24160    23188    23209 1
   24161    23189    23190 1
   24162    23189    23210 1
   24163    23189    23211 1
   24164    23190    23191 1
   24165    23190    23212 1
   24166    23190    23213 1
   24167    23191    23192 1
   24168    23191    23214 1
   24169    23191    23215 1
   24170    23192    23193 1
   24171    23192    23216 1
   24172    23192    23217 1
   24173    23193    23194 1
   24174    23193    23218 1
   24175    23193    23219 1
   24176    23194    23195 1
   24177    23194    23220 1
   24178    23194    23221 1
   24179    23195    23196 1
   24180    23195    23222 1
   24181    23195    23223 1
   24182    23196    23197 1
   24183    23196    23224 1
   24184    23196    23225 1
   24185    23197    23198 1
   24186    23197    23226 1
   24187    23197    23227 1
   24188    23198    23199 1
   24189    23198    23228 1
   24190    23198    23229 1
   24191    23199    23230 1
   24192    23199    23231 1
   24193    23199    23232 1
   24194    23233    23234 1
   24195    23233    23240 1
   24196    23233    23256 1
   24197    23233    23305 1
   24198    23234    23235 1
   24199    23234    23238 1
   24200    23235    23236 1
   24201    23235    23239 1
   24202    23236    23237 1
   24203    23237    23238 1
   24204    23238    23244 1
   24205    23239    23240 1
   24206    23239    23243 1
   24207    23240    23241 1
   24208    23241    23242 1
   24209    23241    23245 1
   24210    23242    23243 1
   24211    23242    23254 1
   24212    23246    23247 1
   24213    23246    23254 1
   24214    23247    23248 1
   24215    23247    23255 1
   24216    23248    23249 1
   24217    23248    23358 1
   24218    23249    23250 1
   24219    23249    23253 1
   24220    23250    23251 1
   24221    23251    23252 1
   24222    23252    23253 1
   24223    23253    23254 1
   24224    23256    23257 1
   24225    23256    23272 1
   24226    23256    23273 1
   24227    23257    23258 1
   24228    23257    23274 1
   24229    23257    23275 1
   24230    23258    23259 1
   24231    23258    23276 1
   24232    23258    23277 1
   24233    23259    23260 1
   24234    23259    23278 1
   24235    23259    23279 1
   24236    23260    23261 1
   24237    23260    23280 1
   24238    23260    23281 1
   24239    23261    23262 1
   24240    23261    23282 1
   24241    23261    23283 1
   24242    23262    23263 1
   24243    23262    23284 1
   24244    23262    23285 1
   24245    23263    23264 1
   24246    23263    23286 1
   24247    23263    23287 1
   24248    23264    23265 1
   24249    23264    23288 1
   24250    23264    23289 1
   24251    23265    23266 1
   24252    23265    23290 1
   24253    23265    23291 1
   24254    23266    23267 1
   24255    23266    23292 1
   24256    23266    23293 1
   24257    23267    23268 1
   24258    23267    23294 1
   24259    23267    23295 1
   24260    23268    23269 1
   24261    23268    23296 1
   24262    23268    23297 1
   24263    23269    23270 1
   24264    23269    23298 1
   24265    23269    23299 1
   24266    23270    23271 1
   24267    23270    23300 1
   24268    23270    23301 1
   24269    23271    23302 1
   24270    23271    23303 1
   24271    23271    23304 1
   24272    23305    23306 1
   24273    23305    23321 1
   24274    23305    23322 1
   24275    23306    23307 1
   24276    23306    23323 1
   24277    23306    23324 1
   24278    23307    23308 1
   24279    23307    23325 1
   24280    23307    23326 1
   24281    23308    23309 1
   24282    23308    23327 1
   24283    23308    23328 1
   24284    23309    23310 1
   24285    23309    23329 1
   24286    23309    23330 1
   24287    23310    23311 1
   24288    23310    23331 1
   24289    23310    23332 1
   24290    23311    23312 1
   24291    23311    23333 1
   24292    23311    23334 1
   24293    23312    23313 1
   24294    23312    23335 1
   24295    23312    23336 1
   24296    23313    23314 1
   24297    23313    23337 1
   24298    23313    23338 1
   24299    23314    23315 1
   24300    23314    23339 1
   24301    23314    23340 1
   24302    23315    23316 1
   24303    23315    23341 1
   24304    23315    23342 1
   24305    23316    23317 1
   24306    23316    23343 1
   24307    23316    23344 1
   24308    23317    23318 1
   24309    23317    23345 1
   24310    23317    23346 1
   24311    23318    23319 1
   24312    23318    23347 1
   24313    23318    23348 1
   24314    23319    23320 1
   24315    23319    23349 1
   24316    23319    23350 1
   24317    23320    23351 1
   24318    23320    23352 1
   24319    23320    23353 1
   24320    23354    23355 1
   24321    23354    23361 1
   24322    23354    23377 1
   24323    23354    23426 1
   24324    23355    23356 1
   24325    23355    23359 1
   24326    23356    23357 1
   24327    23356    23360 1
   24328    23357    23358 1
   24329    23358    23359 1
   24330    23359    23365 1
   24331    23360    23361 1
   24332    23360    23364 1
   24333    23361    23362 1
   24334    23362    23363 1
   24335    23362    23366 1
   24336    23363    23364 1
   24337    23363    23375 1
   24338    23367    23368 1
   24339    23367    23375 1
   24340    23368    23369 1
   24341    23368    23376 1
   24342    23369    23370 1
   24343    23369    23479 1
   24344    23370    23371 1
   24345    23370    23374 1
   24346    23371    23372 1
   24347    23372    23373 1
   24348    23373    23374 1
   24349    23374    23375 1
   24350    23377    23378 1
   24351    23377    23393 1
   24352    23377    23394 1
   24353    23378    23379 1
   24354    23378    23395 1
   24355    23378    23396 1
   24356    23379    23380 1
   24357    23379    23397 1
   24358    23379    23398 1
   24359    23380    23381 1
   24360    23380    23399 1
   24361    23380    23400 1
   24362    23381    23382 1
   24363    23381    23401 1
   24364    23381    23402 1
   24365    23382    23383 1
   24366    23382    23403 1
   24367    23382    23404 1
   24368    23383    23384 1
   24369    23383    23405 1
   24370    23383    23406 1
   24371    23384    23385 1
   24372    23384    23407 1
   24373    23384    23408 1
   24374    23385    23386 1
   24375    23385    23409 1
   24376    23385    23410 1
   24377    23386    23387 1
   24378    23386    23411 1
   24379    23386    23412 1
   24380    23387    23388 1
   24381    23387    23413 1
   24382    23387    23414 1
   24383    23388    23389 1
   24384    23388    23415 1
   24385    23388    23416 1
   24386    23389    23390 1
   24387    23389    23417 1
   24388    23389    23418 1
   24389    23390    23391 1
   24390    23390    23419 1
   24391    23390    23420 1
   24392    23391    23392 1
   24393    23391    23421 1
   24394    23391    23422 1
   24395    23392    23423 1
   24396    23392    23424 1
   24397    23392    23425 1
   24398    23426    23427 1
   24399    23426    23442 1
   24400    23426    23443 1
   24401    23427    23428 1
   24402    23427    23444 1
   24403    23427    23445 1
   24404    23428    23429 1
   24405    23428    23446 1
   24406    23428    23447 1
   24407    23429    23430 1
   24408    23429    23448 1
   24409    23429    23449 1
   24410    23430    23431 1
   24411    23430    23450 1
   24412    23430    23451 1
   24413    23431    23432 1
   24414    23431    23452 1
   24415    23431    23453 1
   24416    23432    23433 1
   24417    23432    23454 1
   24418    23432    23455 1
   24419    23433    23434 1
   24420    23433    23456 1
   24421    23433    23457 1
   24422    23434    23435 1
   24423    23434    23458 1
   24424    23434    23459 1
   24425    23435    23436 1
   24426    23435    23460 1
   24427    23435    23461 1
   24428    23436    23437 1
   24429    23436    23462 1
   24430    23436    23463 1
   24431    23437    23438 1
   24432    23437    23464 1
   24433    23437    23465 1
   24434    23438    23439 1
   24435    23438    23466 1
   24436    23438    23467 1
   24437    23439    23440 1
   24438    23439    23468 1
   24439    23439    23469 1
   24440    23440    23441 1
   24441    23440    23470 1
   24442    23440    23471 1
   24443    23441    23472 1
   24444    23441    23473 1
   24445    23441    23474 1
   24446    23475    23476 1
   24447    23475    23482 1
   24448    23475    23498 1
   24449    23475    23547 1
   24450    23476    23477 1
   24451    23476    23480 1
   24452    23477    23478 1
   24453    23477    23481 1
   24454    23478    23479 1
   24455    23479    23480 1
   24456    23480    23486 1
   24457    23481    23482 1
   24458    23481    23485 1
   24459    23482    23483 1
   24460    23483    23484 1
   24461    23483    23487 1
   24462    23484    23485 1
   24463    23484    23496 1
   24464    23488    23489 1
   24465    23488    23496 1
   24466    23489    23490 1
   24467    23489    23497 1
   24468    23490    23491 1
   24469    23490    23600 1
   24470    23491    23492 1
   24471    23491    23495 1
   24472    23492    23493 1
   24473    23493    23494 1
   24474    23494    23495 1
   24475    23495    23496 1
   24476    23498    23499 1
   24477    23498    23514 1
   24478    23498    23515 1
   24479    23499    23500 1
   24480    23499    23516 1
   24481    23499    23517 1
   24482    23500    23501 1
   24483    23500    23518 1
   24484    23500    23519 1
   24485    23501    23502 1
   24486    23501    23520 1
   24487    23501    23521 1
   24488    23502    23503 1
   24489    23502    23522 1
   24490    23502    23523 1
   24491    23503    23504 1
   24492    23503    23524 1
   24493    23503    23525 1
   24494    23504    23505 1
   24495    23504    23526 1
   24496    23504    23527 1
   24497    23505    23506 1
   24498    23505    23528 1
   24499    23505    23529 1
   24500    23506    23507 1
   24501    23506    23530 1
   24502    23506    23531 1
   24503    23507    23508 1
   24504    23507    23532 1
   24505    23507    23533 1
   24506    23508    23509 1
   24507    23508    23534 1
   24508    23508    23535 1
   24509    23509    23510 1
   24510    23509    23536 1
   24511    23509    23537 1
   24512    23510    23511 1
   24513    23510    23538 1
   24514    23510    23539 1
   24515    23511    23512 1
   24516    23511    23540 1
   24517    23511    23541 1
   24518    23512    23513 1
   24519    23512    23542 1
   24520    23512    23543 1
   24521    23513    23544 1
   24522    23513    23545 1
   24523    23513    23546 1
   24524    23547    23548 1
   24525    23547    23563 1
   24526    23547    23564 1
   24527    23548    23549 1
   24528    23548    23565 1
   24529    23548    23566 1
   24530    23549    23550 1
   24531    23549    23567 1
   24532    23549    23568 1
   24533    23550    23551 1
   24534    23550    23569 1
   24535    23550    23570 1
   24536    23551    23552 1
   24537    23551    23571 1
   24538    23551    23572 1
   24539    23552    23553 1
   24540    23552    23573 1
   24541    23552    23574 1
   24542    23553    23554 1
   24543    23553    23575 1
   24544    23553    23576 1
   24545    23554    23555 1
   24546    23554    23577 1
   24547    23554    23578 1
   24548    23555    23556 1
   24549    23555    23579 1
   24550    23555    23580 1
   24551    23556    23557 1
   24552    23556    23581 1
   24553    23556    23582 1
   24554    23557    23558 1
   24555    23557    23583 1
   24556    23557    23584 1
   24557    23558    23559 1
   24558    23558    23585 1
   24559    23558    23586 1
   24560    23559    23560 1
   24561    23559    23587 1
   24562    23559    23588 1
   24563    23560    23561 1
   24564    23560    23589 1
   24565    23560    23590 1
   24566    23561    23562 1
   24567    23561    23591 1
   24568    23561    23592 1
   24569    23562    23593 1
   24570    23562    23594 1
   24571    23562    23595 1
   24572    23596    23597 1
   24573    23596    23603 1
   24574    23596    23619 1
   24575    23596    23668 1
   24576    23597    23598 1
   24577    23597    23601 1
   24578    23598    23599 1
   24579    23598    23602 1
   24580    23599    23600 1
   24581    23600    23601 1
   24582    23601    23607 1
   24583    23602    23603 1
   24584    23602    23606 1
   24585    23603    23604 1
   24586    23604    23605 1
   24587    23604    23608 1
   24588    23605    23606 1
   24589    23605    23617 1
   24590    23609    23610 1
   24591    23609    23617 1
   24592    23610    23611 1
   24593    23610    23618 1
   24594    23611    23612 1
   24595    23611    23721 1
   24596    23612    23613 1
   24597    23612    23616 1
   24598    23613    23614 1
   24599    23614    23615 1
   24600    23615    23616 1
   24601    23616    23617 1
   24602    23619    23620 1
   24603    23619    23635 1
   24604    23619    23636 1
   24605    23620    23621 1
   24606    23620    23637 1
   24607    23620    23638 1
   24608    23621    23622 1
   24609    23621    23639 1
   24610    23621    23640 1
   24611    23622    23623 1
   24612    23622    23641 1
   24613    23622    23642 1
   24614    23623    23624 1
   24615    23623    23643 1
   24616    23623    23644 1
   24617    23624    23625 1
   24618    23624    23645 1
   24619    23624    23646 1
   24620    23625    23626 1
   24621    23625    23647 1
   24622    23625    23648 1
   24623    23626    23627 1
   24624    23626    23649 1
   24625    23626    23650 1
   24626    23627    23628 1
   24627    23627    23651 1
   24628    23627    23652 1
   24629    23628    23629 1
   24630    23628    23653 1
   24631    23628    23654 1
   24632    23629    23630 1
   24633    23629    23655 1
   24634    23629    23656 1
   24635    23630    23631 1
   24636    23630    23657 1
   24637    23630    23658 1
   24638    23631    23632 1
   24639    23631    23659 1
   24640    23631    23660 1
   24641    23632    23633 1
   24642    23632    23661 1
   24643    23632    23662 1
   24644    23633    23634 1
   24645    23633    23663 1
   24646    23633    23664 1
   24647    23634    23665 1
   24648    23634    23666 1
   24649    23634    23667 1
   24650    23668    23669 1
   24651    23668    23684 1
   24652    23668    23685 1
   24653    23669    23670 1
   24654    23669    23686 1
   24655    23669    23687 1
   24656    23670    23671 1
   24657    23670    23688 1
   24658    23670    23689 1
   24659    23671    23672 1
   24660    23671    23690 1
   24661    23671    23691 1
   24662    23672    23673 1
   24663    23672    23692 1
   24664    23672    23693 1
   24665    23673    23674 1
   24666    23673    23694 1
   24667    23673    23695 1
   24668    23674    23675 1
   24669    23674    23696 1
   24670    23674    23697 1
   24671    23675    23676 1
   24672    23675    23698 1
   24673    23675    23699 1
   24674    23676    23677 1
   24675    23676    23700 1
   24676    23676    23701 1
   24677    23677    23678 1
   24678    23677    23702 1
   24679    23677    23703 1
   24680    23678    23679 1
   24681    23678    23704 1
   24682    23678    23705 1
   24683    23679    23680 1
   24684    23679    23706 1
   24685    23679    23707 1
   24686    23680    23681 1
   24687    23680    23708 1
   24688    23680    23709 1
   24689    23681    23682 1
   24690    23681    23710 1
   24691    23681    23711 1
   24692    23682    23683 1
   24693    23682    23712 1
   24694    23682    23713 1
   24695    23683    23714 1
   24696    23683    23715 1
   24697    23683    23716 1
   24698    23717    23718 1
   24699    23717    23724 1
   24700    23717    23740 1
   24701    23717    23789 1
   24702    23718    23719 1
   24703    23718    23722 1
   24704    23719    23720 1
   24705    23719    23723 1
   24706    23720    23721 1
   24707    23721    23722 1
   24708    23722    23728 1
   24709    23723    23724 1
   24710    23723    23727 1
   24711    23724    23725 1
   24712    23725    23726 1
   24713    23725    23729 1
   24714    23726    23727 1
   24715    23726    23738 1
   24716    23730    23731 1
   24717    23730    23738 1
   24718    23731    23732 1
   24719    23731    23739 1
   24720    23732    23733 1
   24721    23732    23842 1
   24722    23733    23734 1
   24723    23733    23737 1
   24724    23734    23735 1
   24725    23735    23736 1
   24726    23736    23737 1
   24727    23737    23738 1
   24728    23740    23741 1
   24729    23740    23756 1
   24730    23740    23757 1
   24731    23741    23742 1
   24732    23741    23758 1
   24733    23741    23759 1
   24734    23742    23743 1
   24735    23742    23760 1
   24736    23742    23761 1
   24737    23743    23744 1
   24738    23743    23762 1
   24739    23743    23763 1
   24740    23744    23745 1
   24741    23744    23764 1
   24742    23744    23765 1
   24743    23745    23746 1
   24744    23745    23766 1
   24745    23745    23767 1
   24746    23746    23747 1
   24747    23746    23768 1
   24748    23746    23769 1
   24749    23747    23748 1
   24750    23747    23770 1
   24751    23747    23771 1
   24752    23748    23749 1
   24753    23748    23772 1
   24754    23748    23773 1
   24755    23749    23750 1
   24756    23749    23774 1
   24757    23749    23775 1
   24758    23750    23751 1
   24759    23750    23776 1
   24760    23750    23777 1
   24761    23751    23752 1
   24762    23751    23778 1
   24763    23751    23779 1
   24764    23752    23753 1
   24765    23752    23780 1
   24766    23752    23781 1
   24767    23753    23754 1
   24768    23753    23782 1
   24769    23753    23783 1
   24770    23754    23755 1
   24771    23754    23784 1
   24772    23754    23785 1
   24773    23755    23786 1
   24774    23755    23787 1
   24775    23755    23788 1
   24776    23789    23790 1
   24777    23789    23805 1
   24778    23789    23806 1
   24779    23790    23791 1
   24780    23790    23807 1
   24781    23790    23808 1
   24782    23791    23792 1
   24783    23791    23809 1
   24784    23791    23810 1
   24785    23792    23793 1
   24786    23792    23811 1
   24787    23792    23812 1
   24788    23793    23794 1
   24789    23793    23813 1
   24790    23793    23814 1
   24791    23794    23795 1
   24792    23794    23815 1
   24793    23794    23816 1
   24794    23795    23796 1
   24795    23795    23817 1
   24796    23795    23818 1
   24797    23796    23797 1
   24798    23796    23819 1
   24799    23796    23820 1
   24800    23797    23798 1
   24801    23797    23821 1
   24802    23797    23822 1
   24803    23798    23799 1
   24804    23798    23823 1
   24805    23798    23824 1
   24806    23799    23800 1
   24807    23799    23825 1
   24808    23799    23826 1
   24809    23800    23801 1
   24810    23800    23827 1
   24811    23800    23828 1
   24812    23801    23802 1
   24813    23801    23829 1
   24814    23801    23830 1
   24815    23802    23803 1
   24816    23802    23831 1
   24817    23802    23832 1
   24818    23803    23804 1
   24819    23803    23833 1
   24820    23803    23834 1
   24821    23804    23835 1
   24822    23804    23836 1
   24823    23804    23837 1
   24824    23838    23839 1
   24825    23838    23845 1
   24826    23838    23861 1
   24827    23838    23910 1
   24828    23839    23840 1
   24829    23839    23843 1
   24830    23840    23841 1
   24831    23840    23844 1
   24832    23841    23842 1
   24833    23842    23843 1
   24834    23843    23849 1
   24835    23844    23845 1
   24836    23844    23848 1
   24837    23845    23846 1
   24838    23846    23847 1
   24839    23846    23850 1
   24840    23847    23848 1
   24841    23847    23859 1
   24842    23851    23852 1
   24843    23851    23859 1
   24844    23852    23853 1
   24845    23852    23860 1
   24846    23853    23854 1
   24847    23853    23963 1
   24848    23854    23855 1
   24849    23854    23858 1
   24850    23855    23856 1
   24851    23856    23857 1
   24852    23857    23858 1
   24853    23858    23859 1
   24854    23861    23862 1
   24855    23861    23877 1
   24856    23861    23878 1
   24857    23862    23863 1
   24858    23862    23879 1
   24859    23862    23880 1
   24860    23863    23864 1
   24861    23863    23881 1
   24862    23863    23882 1
   24863    23864    23865 1
   24864    23864    23883 1
   24865    23864    23884 1
   24866    23865    23866 1
   24867    23865    23885 1
   24868    23865    23886 1
   24869    23866    23867 1
   24870    23866    23887 1
   24871    23866    23888 1
   24872    23867    23868 1
   24873    23867    23889 1
   24874    23867    23890 1
   24875    23868    23869 1
   24876    23868    23891 1
   24877    23868    23892 1
   24878    23869    23870 1
   24879    23869    23893 1
   24880    23869    23894 1
   24881    23870    23871 1
   24882    23870    23895 1
   24883    23870    23896 1
   24884    23871    23872 1
   24885    23871    23897 1
   24886    23871    23898 1
   24887    23872    23873 1
   24888    23872    23899 1
   24889    23872    23900 1
   24890    23873    23874 1
   24891    23873    23901 1
   24892    23873    23902 1
   24893    23874    23875 1
   24894    23874    23903 1
   24895    23874    23904 1
   24896    23875    23876 1
   24897    23875    23905 1
   24898    23875    23906 1
   24899    23876    23907 1
   24900    23876    23908 1
   24901    23876    23909 1
   24902    23910    23911 1
   24903    23910    23926 1
   24904    23910    23927 1
   24905    23911    23912 1
   24906    23911    23928 1
   24907    23911    23929 1
   24908    23912    23913 1
   24909    23912    23930 1
   24910    23912    23931 1
   24911    23913    23914 1
   24912    23913    23932 1
   24913    23913    23933 1
   24914    23914    23915 1
   24915    23914    23934 1
   24916    23914    23935 1
   24917    23915    23916 1
   24918    23915    23936 1
   24919    23915    23937 1
   24920    23916    23917 1
   24921    23916    23938 1
   24922    23916    23939 1
   24923    23917    23918 1
   24924    23917    23940 1
   24925    23917    23941 1
   24926    23918    23919 1
   24927    23918    23942 1
   24928    23918    23943 1
   24929    23919    23920 1
   24930    23919    23944 1
   24931    23919    23945 1
   24932    23920    23921 1
   24933    23920    23946 1
   24934    23920    23947 1
   24935    23921    23922 1
   24936    23921    23948 1
   24937    23921    23949 1
   24938    23922    23923 1
   24939    23922    23950 1
   24940    23922    23951 1
   24941    23923    23924 1
   24942    23923    23952 1
   24943    23923    23953 1
   24944    23924    23925 1
   24945    23924    23954 1
   24946    23924    23955 1
   24947    23925    23956 1
   24948    23925    23957 1
   24949    23925    23958 1
   24950    23959    23960 1
   24951    23959    23966 1
   24952    23959    23982 1
   24953    23959    24031 1
   24954    23960    23961 1
   24955    23960    23964 1
   24956    23961    23962 1
   24957    23961    23965 1
   24958    23962    23963 1
   24959    23963    23964 1
   24960    23964    23970 1
   24961    23965    23966 1
   24962    23965    23969 1
   24963    23966    23967 1
   24964    23967    23968 1
   24965    23967    23971 1
   24966    23968    23969 1
   24967    23968    23980 1
   24968    23972    23973 1
   24969    23972    23980 1
   24970    23973    23974 1
   24971    23973    23981 1
   24972    23974    23975 1
   24973    23974    24084 1
   24974    23975    23976 1
   24975    23975    23979 1
   24976    23976    23977 1
   24977    23977    23978 1
   24978    23978    23979 1
   24979    23979    23980 1
   24980    23982    23983 1
   24981    23982    23998 1
   24982    23982    23999 1
   24983    23983    23984 1
   24984    23983    24000 1
   24985    23983    24001 1
   24986    23984    23985 1
   24987    23984    24002 1
   24988    23984    24003 1
   24989    23985    23986 1
   24990    23985    24004 1
   24991    23985    24005 1
   24992    23986    23987 1
   24993    23986    24006 1
   24994    23986    24007 1
   24995    23987    23988 1
   24996    23987    24008 1
   24997    23987    24009 1
   24998    23988    23989 1
   24999    23988    24010 1
   25000    23988    24011 1
   25001    23989    23990 1
   25002    23989    24012 1
   25003    23989    24013 1
   25004    23990    23991 1
   25005    23990    24014 1
   25006    23990    24015 1
   25007    23991    23992 1
   25008    23991    24016 1
   25009    23991    24017 1
   25010    23992    23993 1
   25011    23992    24018 1
   25012    23992    24019 1
   25013    23993    23994 1
   25014    23993    24020 1
   25015    23993    24021 1
   25016    23994    23995 1
   25017    23994    24022 1
   25018    23994    24023 1
   25019    23995    23996 1
   25020    23995    24024 1
   25021    23995    24025 1
   25022    23996    23997 1
   25023    23996    24026 1
   25024    23996    24027 1
   25025    23997    24028 1
   25026    23997    24029 1
   25027    23997    24030 1
   25028    24031    24032 1
   25029    24031    24047 1
   25030    24031    24048 1
   25031    24032    24033 1
   25032    24032    24049 1
   25033    24032    24050 1
   25034    24033    24034 1
   25035    24033    24051 1
   25036    24033    24052 1
   25037    24034    24035 1
   25038    24034    24053 1
   25039    24034    24054 1
   25040    24035    24036 1
   25041    24035    24055 1
   25042    24035    24056 1
   25043    24036    24037 1
   25044    24036    24057 1
   25045    24036    24058 1
   25046    24037    24038 1
   25047    24037    24059 1
   25048    24037    24060 1
   25049    24038    24039 1
   25050    24038    24061 1
   25051    24038    24062 1
   25052    24039    24040 1
   25053    24039    24063 1
   25054    24039    24064 1
   25055    24040    24041 1
   25056    24040    24065 1
   25057    24040    24066 1
   25058    24041    24042 1
   25059    24041    24067 1
   25060    24041    24068 1
   25061    24042    24043 1
   25062    24042    24069 1
   25063    24042    24070 1
   25064    24043    24044 1
   25065    24043    24071 1
   25066    24043    24072 1
   25067    24044    24045 1
   25068    24044    24073 1
   25069    24044    24074 1
   25070    24045    24046 1
   25071    24045    24075 1
   25072    24045    24076 1
   25073    24046    24077 1
   25074    24046    24078 1
   25075    24046    24079 1
   25076    24080    24081 1
   25077    24080    24087 1
   25078    24080    24103 1
   25079    24080    24152 1
   25080    24081    24082 1
   25081    24081    24085 1
   25082    24082    24083 1
   25083    24082    24086 1
   25084    24083    24084 1
   25085    24084    24085 1
   25086    24085    24091 1
   25087    24086    24087 1
   25088    24086    24090 1
   25089    24087    24088 1
   25090    24088    24089 1
   25091    24088    24092 1
   25092    24089    24090 1
   25093    24089    24101 1
   25094    24093    24094 1
   25095    24093    24101 1
   25096    24094    24095 1
   25097    24094    24102 1
   25098    24095    24096 1
   25099    24095    24205 1
   25100    24096    24097 1
   25101    24096    24100 1
   25102    24097    24098 1
   25103    24098    24099 1
   25104    24099    24100 1
   25105    24100    24101 1
   25106    24103    24104 1
   25107    24103    24119 1
   25108    24103    24120 1
   25109    24104    24105 1
   25110    24104    24121 1
   25111    24104    24122 1
   25112    24105    24106 1
   25113    24105    24123 1
   25114    24105    24124 1
   25115    24106    24107 1
   25116    24106    24125 1
   25117    24106    24126 1
   25118    24107    24108 1
   25119    24107    24127 1
   25120    24107    24128 1
   25121    24108    24109 1
   25122    24108    24129 1
   25123    24108    24130 1
   25124    24109    24110 1
   25125    24109    24131 1
   25126    24109    24132 1
   25127    24110    24111 1
   25128    24110    24133 1
   25129    24110    24134 1
   25130    24111    24112 1
   25131    24111    24135 1
   25132    24111    24136 1
   25133    24112    24113 1
   25134    24112    24137 1
   25135    24112    24138 1
   25136    24113    24114 1
   25137    24113    24139 1
   25138    24113    24140 1
   25139    24114    24115 1
   25140    24114    24141 1
   25141    24114    24142 1
   25142    24115    24116 1
   25143    24115    24143 1
   25144    24115    24144 1
   25145    24116    24117 1
   25146    24116    24145 1
   25147    24116    24146 1
   25148    24117    24118 1
   25149    24117    24147 1
   25150    24117    24148 1
   25151    24118    24149 1
   25152    24118    24150 1
   25153    24118    24151 1
   25154    24152    24153 1
   25155    24152    24168 1
   25156    24152    24169 1
   25157    24153    24154 1
   25158    24153    24170 1
   25159    24153    24171 1
   25160    24154    24155 1
   25161    24154    24172 1
   25162    24154    24173 1
   25163    24155    24156 1
   25164    24155    24174 1
   25165    24155    24175 1
   25166    24156    24157 1
   25167    24156    24176 1
   25168    24156    24177 1
   25169    24157    24158 1
   25170    24157    24178 1
   25171    24157    24179 1
   25172    24158    24159 1
   25173    24158    24180 1
   25174    24158    24181 1
   25175    24159    24160 1
   25176    24159    24182 1
   25177    24159    24183 1
   25178    24160    24161 1
   25179    24160    24184 1
   25180    24160    24185 1
   25181    24161    24162 1
   25182    24161    24186 1
   25183    24161    24187 1
   25184    24162    24163 1
   25185    24162    24188 1
   25186    24162    24189 1
   25187    24163    24164 1
   25188    24163    24190 1
   25189    24163    24191 1
   25190    24164    24165 1
   25191    24164    24192 1
   25192    24164    24193 1
   25193    24165    24166 1
   25194    24165    24194 1
   25195    24165    24195 1
   25196    24166    24167 1
   25197    24166    24196 1
   25198    24166    24197 1
   25199    24167    24198 1
   25200    24167    24199 1
   25201    24167    24200 1
   25202    24201    24202 1
   25203    24201    24208 1
   25204    24201    24224 1
   25205    24201    24273 1
   25206    24202    24203 1
   25207    24202    24206 1
   25208    24203    24204 1
   25209    24203    24207 1
   25210    24204    24205 1
   25211    24205    24206 1
   25212    24206    24212 1
   25213    24207    24208 1
   25214    24207    24211 1
   25215    24208    24209 1
   25216    24209    24210 1
   25217    24209    24213 1
   25218    24210    24211 1
   25219    24210    24222 1
   25220    24214    24215 1
   25221    24214    24222 1
   25222    24215    24216 1
   25223    24215    24223 1
   25224    24216    24217 1
   25225    24216    24326 1
   25226    24217    24218 1
   25227    24217    24221 1
   25228    24218    24219 1
   25229    24219    24220 1
   25230    24220    24221 1
   25231    24221    24222 1
   25232    24224    24225 1
   25233    24224    24240 1
   25234    24224    24241 1
   25235    24225    24226 1
   25236    24225    24242 1
   25237    24225    24243 1
   25238    24226    24227 1
   25239    24226    24244 1
   25240    24226    24245 1
   25241    24227    24228 1
   25242    24227    24246 1
   25243    24227    24247 1
   25244    24228    24229 1
   25245    24228    24248 1
   25246    24228    24249 1
   25247    24229    24230 1
   25248    24229    24250 1
   25249    24229    24251 1
   25250    24230    24231 1
   25251    24230    24252 1
   25252    24230    24253 1
   25253    24231    24232 1
   25254    24231    24254 1
   25255    24231    24255 1
   25256    24232    24233 1
   25257    24232    24256 1
   25258    24232    24257 1
   25259    24233    24234 1
   25260    24233    24258 1
   25261    24233    24259 1
   25262    24234    24235 1
   25263    24234    24260 1
   25264    24234    24261 1
   25265    24235    24236 1
   25266    24235    24262 1
   25267    24235    24263 1
   25268    24236    24237 1
   25269    24236    24264 1
   25270    24236    24265 1
   25271    24237    24238 1
   25272    24237    24266 1
   25273    24237    24267 1
   25274    24238    24239 1
   25275    24238    24268 1
   25276    24238    24269 1
   25277    24239    24270 1
   25278    24239    24271 1
   25279    24239    24272 1
   25280    24273    24274 1
   25281    24273    24289 1
   25282    24273    24290 1
   25283    24274    24275 1
   25284    24274    24291 1
   25285    24274    24292 1
   25286    24275    24276 1
   25287    24275    24293 1
   25288    24275    24294 1
   25289    24276    24277 1
   25290    24276    24295 1
   25291    24276    24296 1
   25292    24277    24278 1
   25293    24277    24297 1
   25294    24277    24298 1
   25295    24278    24279 1
   25296    24278    24299 1
   25297    24278    24300 1
   25298    24279    24280 1
   25299    24279    24301 1
   25300    24279    24302 1
   25301    24280    24281 1
   25302    24280    24303 1
   25303    24280    24304 1
   25304    24281    24282 1
   25305    24281    24305 1
   25306    24281    24306 1
   25307    24282    24283 1
   25308    24282    24307 1
   25309    24282    24308 1
   25310    24283    24284 1
   25311    24283    24309 1
   25312    24283    24310 1
   25313    24284    24285 1
   25314    24284    24311 1
   25315    24284    24312 1
   25316    24285    24286 1
   25317    24285    24313 1
   25318    24285    24314 1
   25319    24286    24287 1
   25320    24286    24315 1
   25321    24286    24316 1
   25322    24287    24288 1
   25323    24287    24317 1
   25324    24287    24318 1
   25325    24288    24319 1
   25326    24288    24320 1
   25327    24288    24321 1
   25328    24322    24323 1
   25329    24322    24329 1
   25330    24322    24345 1
   25331    24322    24394 1
   25332    24323    24324 1
   25333    24323    24327 1
   25334    24324    24325 1
   25335    24324    24328 1
   25336    24325    24326 1
   25337    24326    24327 1
   25338    24327    24333 1
   25339    24328    24329 1
   25340    24328    24332 1
   25341    24329    24330 1
   25342    24330    24331 1
   25343    24330    24334 1
   25344    24331    24332 1
   25345    24331    24343 1
   25346    24335    24336 1
   25347    24335    24343 1
   25348    24336    24337 1
   25349    24336    24344 1
   25350    24337    24338 1
   25351    24337    24447 1
   25352    24338    24339 1
   25353    24338    24342 1
   25354    24339    24340 1
   25355    24340    24341 1
   25356    24341    24342 1
   25357    24342    24343 1
   25358    24345    24346 1
   25359    24345    24361 1
   25360    24345    24362 1
   25361    24346    24347 1
   25362    24346    24363 1
   25363    24346    24364 1
   25364    24347    24348 1
   25365    24347    24365 1
   25366    24347    24366 1
   25367    24348    24349 1
   25368    24348    24367 1
   25369    24348    24368 1
   25370    24349    24350 1
   25371    24349    24369 1
   25372    24349    24370 1
   25373    24350    24351 1
   25374    24350    24371 1
   25375    24350    24372 1
   25376    24351    24352 1
   25377    24351    24373 1
   25378    24351    24374 1
   25379    24352    24353 1
   25380    24352    24375 1
   25381    24352    24376 1
   25382    24353    24354 1
   25383    24353    24377 1
   25384    24353    24378 1
   25385    24354    24355 1
   25386    24354    24379 1
   25387    24354    24380 1
   25388    24355    24356 1
   25389    24355    24381 1
   25390    24355    24382 1
   25391    24356    24357 1
   25392    24356    24383 1
   25393    24356    24384 1
   25394    24357    24358 1
   25395    24357    24385 1
   25396    24357    24386 1
   25397    24358    24359 1
   25398    24358    24387 1
   25399    24358    24388 1
   25400    24359    24360 1
   25401    24359    24389 1
   25402    24359    24390 1
   25403    24360    24391 1
   25404    24360    24392 1
   25405    24360    24393 1
   25406    24394    24395 1
   25407    24394    24410 1
   25408    24394    24411 1
   25409    24395    24396 1
   25410    24395    24412 1
   25411    24395    24413 1
   25412    24396    24397 1
   25413    24396    24414 1
   25414    24396    24415 1
   25415    24397    24398 1
   25416    24397    24416 1
   25417    24397    24417 1
   25418    24398    24399 1
   25419    24398    24418 1
   25420    24398    24419 1
   25421    24399    24400 1
   25422    24399    24420 1
   25423    24399    24421 1
   25424    24400    24401 1
   25425    24400    24422 1
   25426    24400    24423 1
   25427    24401    24402 1
   25428    24401    24424 1
   25429    24401    24425 1
   25430    24402    24403 1
   25431    24402    24426 1
   25432    24402    24427 1
   25433    24403    24404 1
   25434    24403    24428 1
   25435    24403    24429 1
   25436    24404    24405 1
   25437    24404    24430 1
   25438    24404    24431 1
   25439    24405    24406 1
   25440    24405    24432 1
   25441    24405    24433 1
   25442    24406    24407 1
   25443    24406    24434 1
   25444    24406    24435 1
   25445    24407    24408 1
   25446    24407    24436 1
   25447    24407    24437 1
   25448    24408    24409 1
   25449    24408    24438 1
   25450    24408    24439 1
   25451    24409    24440 1
   25452    24409    24441 1
   25453    24409    24442 1
   25454    24443    24444 1
   25455    24443    24450 1
   25456    24443    24466 1
   25457    24443    24515 1
   25458    24444    24445 1
   25459    24444    24448 1
   25460    24445    24446 1
   25461    24445    24449 1
   25462    24446    24447 1
   25463    24447    24448 1
   25464    24448    24454 1
   25465    24449    24450 1
   25466    24449    24453 1
   25467    24450    24451 1
   25468    24451    24452 1
   25469    24451    24455 1
   25470    24452    24453 1
   25471    24452    24464 1
   25472    24456    24457 1
   25473    24456    24464 1
   25474    24457    24458 1
   25475    24457    24465 1
   25476    24458    24459 1
   25477    24458    24568 1
   25478    24459    24460 1
   25479    24459    24463 1
   25480    24460    24461 1
   25481    24461    24462 1
   25482    24462    24463 1
   25483    24463    24464 1
   25484    24466    24467 1
   25485    24466    24482 1
   25486    24466    24483 1
   25487    24467    24468 1
   25488    24467    24484 1
   25489    24467    24485 1
   25490    24468    24469 1
   25491    24468    24486 1
   25492    24468    24487 1
   25493    24469    24470 1
   25494    24469    24488 1
   25495    24469    24489 1
   25496    24470    24471 1
   25497    24470    24490 1
   25498    24470    24491 1
   25499    24471    24472 1
   25500    24471    24492 1
   25501    24471    24493 1
   25502    24472    24473 1
   25503    24472    24494 1
   25504    24472    24495 1
   25505    24473    24474 1
   25506    24473    24496 1
   25507    24473    24497 1
   25508    24474    24475 1
   25509    24474    24498 1
   25510    24474    24499 1
   25511    24475    24476 1
   25512    24475    24500 1
   25513    24475    24501 1
   25514    24476    24477 1
   25515    24476    24502 1
   25516    24476    24503 1
   25517    24477    24478 1
   25518    24477    24504 1
   25519    24477    24505 1
   25520    24478    24479 1
   25521    24478    24506 1
   25522    24478    24507 1
   25523    24479    24480 1
   25524    24479    24508 1
   25525    24479    24509 1
   25526    24480    24481 1
   25527    24480    24510 1
   25528    24480    24511 1
   25529    24481    24512 1
   25530    24481    24513 1
   25531    24481    24514 1
   25532    24515    24516 1
   25533    24515    24531 1
   25534    24515    24532 1
   25535    24516    24517 1
   25536    24516    24533 1
   25537    24516    24534 1
   25538    24517    24518 1
   25539    24517    24535 1
   25540    24517    24536 1
   25541    24518    24519 1
   25542    24518    24537 1
   25543    24518    24538 1
   25544    24519    24520 1
   25545    24519    24539 1
   25546    24519    24540 1
   25547    24520    24521 1
   25548    24520    24541 1
   25549    24520    24542 1
   25550    24521    24522 1
   25551    24521    24543 1
   25552    24521    24544 1
   25553    24522    24523 1
   25554    24522    24545 1
   25555    24522    24546 1
   25556    24523    24524 1
   25557    24523    24547 1
   25558    24523    24548 1
   25559    24524    24525 1
   25560    24524    24549 1
   25561    24524    24550 1
   25562    24525    24526 1
   25563    24525    24551 1
   25564    24525    24552 1
   25565    24526    24527 1
   25566    24526    24553 1
   25567    24526    24554 1
   25568    24527    24528 1
   25569    24527    24555 1
   25570    24527    24556 1
   25571    24528    24529 1
   25572    24528    24557 1
   25573    24528    24558 1
   25574    24529    24530 1
   25575    24529    24559 1
   25576    24529    24560 1
   25577    24530    24561 1
   25578    24530    24562 1
   25579    24530    24563 1
   25580    24564    24565 1
   25581    24564    24571 1
   25582    24564    24587 1
   25583    24564    24636 1
   25584    24565    24566 1
   25585    24565    24569 1
   25586    24566    24567 1
   25587    24566    24570 1
   25588    24567    24568 1
   25589    24568    24569 1
   25590    24569    24575 1
   25591    24570    24571 1
   25592    24570    24574 1
   25593    24571    24572 1
   25594    24572    24573 1
   25595    24572    24576 1
   25596    24573    24574 1
   25597    24573    24585 1
   25598    24577    24578 1
   25599    24577    24585 1
   25600    24578    24579 1
   25601    24578    24586 1
   25602    24579    24580 1
   25603    24579    24689 1
   25604    24580    24581 1
   25605    24580    24584 1
   25606    24581    24582 1
   25607    24582    24583 1
   25608    24583    24584 1
   25609    24584    24585 1
   25610    24587    24588 1
   25611    24587    24603 1
   25612    24587    24604 1
   25613    24588    24589 1
   25614    24588    24605 1
   25615    24588    24606 1
   25616    24589    24590 1
   25617    24589    24607 1
   25618    24589    24608 1
   25619    24590    24591 1
   25620    24590    24609 1
   25621    24590    24610 1
   25622    24591    24592 1
   25623    24591    24611 1
   25624    24591    24612 1
   25625    24592    24593 1
   25626    24592    24613 1
   25627    24592    24614 1
   25628    24593    24594 1
   25629    24593    24615 1
   25630    24593    24616 1
   25631    24594    24595 1
   25632    24594    24617 1
   25633    24594    24618 1
   25634    24595    24596 1
   25635    24595    24619 1
   25636    24595    24620 1
   25637    24596    24597 1
   25638    24596    24621 1
   25639    24596    24622 1
   25640    24597    24598 1
   25641    24597    24623 1
   25642    24597    24624 1
   25643    24598    24599 1
   25644    24598    24625 1
   25645    24598    24626 1
   25646    24599    24600 1
   25647    24599    24627 1
   25648    24599    24628 1
   25649    24600    24601 1
   25650    24600    24629 1
   25651    24600    24630 1
   25652    24601    24602 1
   25653    24601    24631 1
   25654    24601    24632 1
   25655    24602    24633 1
   25656    24602    24634 1
   25657    24602    24635 1
   25658    24636    24637 1
   25659    24636    24652 1
   25660    24636    24653 1
   25661    24637    24638 1
   25662    24637    24654 1
   25663    24637    24655 1
   25664    24638    24639 1
   25665    24638    24656 1
   25666    24638    24657 1
   25667    24639    24640 1
   25668    24639    24658 1
   25669    24639    24659 1
   25670    24640    24641 1
   25671    24640    24660 1
   25672    24640    24661 1
   25673    24641    24642 1
   25674    24641    24662 1
   25675    24641    24663 1
   25676    24642    24643 1
   25677    24642    24664 1
   25678    24642    24665 1
   25679    24643    24644 1
   25680    24643    24666 1
   25681    24643    24667 1
   25682    24644    24645 1
   25683    24644    24668 1
   25684    24644    24669 1
   25685    24645    24646 1
   25686    24645    24670 1
   25687    24645    24671 1
   25688    24646    24647 1
   25689    24646    24672 1
   25690    24646    24673 1
   25691    24647    24648 1
   25692    24647    24674 1
   25693    24647    24675 1
   25694    24648    24649 1
   25695    24648    24676 1
   25696    24648    24677 1
   25697    24649    24650 1
   25698    24649    24678 1
   25699    24649    24679 1
   25700    24650    24651 1
   25701    24650    24680 1
   25702    24650    24681 1
   25703    24651    24682 1
   25704    24651    24683 1
   25705    24651    24684 1
   25706    24685    24686 1
   25707    24685    24692 1
   25708    24685    24708 1
   25709    24685    24757 1
   25710    24686    24687 1
   25711    24686    24690 1
   25712    24687    24688 1
   25713    24687    24691 1
   25714    24688    24689 1
   25715    24689    24690 1
   25716    24690    24696 1
   25717    24691    24692 1
   25718    24691    24695 1
   25719    24692    24693 1
   25720    24693    24694 1
   25721    24693    24697 1
   25722    24694    24695 1
   25723    24694    24706 1
   25724    24698    24699 1
   25725    24698    24706 1
   25726    24699    24700 1
   25727    24699    24707 1
   25728    24700    24701 1
   25729    24700    24810 1
   25730    24701    24702 1
   25731    24701    24705 1
   25732    24702    24703 1
   25733    24703    24704 1
   25734    24704    24705 1
   25735    24705    24706 1
   25736    24708    24709 1
   25737    24708    24724 1
   25738    24708    24725 1
   25739    24709    24710 1
   25740    24709    24726 1
   25741    24709    24727 1
   25742    24710    24711 1
   25743    24710    24728 1
   25744    24710    24729 1
   25745    24711    24712 1
   25746    24711    24730 1
   25747    24711    24731 1
   25748    24712    24713 1
   25749    24712    24732 1
   25750    24712    24733 1
   25751    24713    24714 1
   25752    24713    24734 1
   25753    24713    24735 1
   25754    24714    24715 1
   25755    24714    24736 1
   25756    24714    24737 1
   25757    24715    24716 1
   25758    24715    24738 1
   25759    24715    24739 1
   25760    24716    24717 1
   25761    24716    24740 1
   25762    24716    24741 1
   25763    24717    24718 1
   25764    24717    24742 1
   25765    24717    24743 1
   25766    24718    24719 1
   25767    24718    24744 1
   25768    24718    24745 1
   25769    24719    24720 1
   25770    24719    24746 1
   25771    24719    24747 1
   25772    24720    24721 1
   25773    24720    24748 1
   25774    24720    24749 1
   25775    24721    24722 1
   25776    24721    24750 1
   25777    24721    24751 1
   25778    24722    24723 1
   25779    24722    24752 1
   25780    24722    24753 1
   25781    24723    24754 1
   25782    24723    24755 1
   25783    24723    24756 1
   25784    24757    24758 1
   25785    24757    24773 1
   25786    24757    24774 1
   25787    24758    24759 1
   25788    24758    24775 1
   25789    24758    24776 1
   25790    24759    24760 1
   25791    24759    24777 1
   25792    24759    24778 1
   25793    24760    24761 1
   25794    24760    24779 1
   25795    24760    24780 1
   25796    24761    24762 1
   25797    24761    24781 1
   25798    24761    24782 1
   25799    24762    24763 1
   25800    24762    24783 1
   25801    24762    24784 1
   25802    24763    24764 1
   25803    24763    24785 1
   25804    24763    24786 1
   25805    24764    24765 1
   25806    24764    24787 1
   25807    24764    24788 1
   25808    24765    24766 1
   25809    24765    24789 1
   25810    24765    24790 1
   25811    24766    24767 1
   25812    24766    24791 1
   25813    24766    24792 1
   25814    24767    24768 1
   25815    24767    24793 1
   25816    24767    24794 1
   25817    24768    24769 1
   25818    24768    24795 1
   25819    24768    24796 1
   25820    24769    24770 1
   25821    24769    24797 1
   25822    24769    24798 1
   25823    24770    24771 1
   25824    24770    24799 1
   25825    24770    24800 1
   25826    24771    24772 1
   25827    24771    24801 1
   25828    24771    24802 1
   25829    24772    24803 1
   25830    24772    24804 1
   25831    24772    24805 1
   25832    24806    24807 1
   25833    24806    24813 1
   25834    24806    24829 1
   25835    24806    24878 1
   25836    24807    24808 1
   25837    24807    24811 1
   25838    24808    24809 1
   25839    24808    24812 1
   25840    24809    24810 1
   25841    24810    24811 1
   25842    24811    24817 1
   25843    24812    24813 1
   25844    24812    24816 1
   25845    24813    24814 1
   25846    24814    24815 1
   25847    24814    24818 1
   25848    24815    24816 1
   25849    24815    24827 1
   25850    24819    24820 1
   25851    24819    24827 1
   25852    24820    24821 1
   25853    24820    24828 1
   25854    24821    24822 1
   25855    24821    24931 1
   25856    24822    24823 1
   25857    24822    24826 1
   25858    24823    24824 1
   25859    24824    24825 1
   25860    24825    24826 1
   25861    24826    24827 1
   25862    24829    24830 1
   25863    24829    24845 1
   25864    24829    24846 1
   25865    24830    24831 1
   25866    24830    24847 1
   25867    24830    24848 1
   25868    24831    24832 1
   25869    24831    24849 1
   25870    24831    24850 1
   25871    24832    24833 1
   25872    24832    24851 1
   25873    24832    24852 1
   25874    24833    24834 1
   25875    24833    24853 1
   25876    24833    24854 1
   25877    24834    24835 1
   25878    24834    24855 1
   25879    24834    24856 1
   25880    24835    24836 1
   25881    24835    24857 1
   25882    24835    24858 1
   25883    24836    24837 1
   25884    24836    24859 1
   25885    24836    24860 1
   25886    24837    24838 1
   25887    24837    24861 1
   25888    24837    24862 1
   25889    24838    24839 1
   25890    24838    24863 1
   25891    24838    24864 1
   25892    24839    24840 1
   25893    24839    24865 1
   25894    24839    24866 1
   25895    24840    24841 1
   25896    24840    24867 1
   25897    24840    24868 1
   25898    24841    24842 1
   25899    24841    24869 1
   25900    24841    24870 1
   25901    24842    24843 1
   25902    24842    24871 1
   25903    24842    24872 1
   25904    24843    24844 1
   25905    24843    24873 1
   25906    24843    24874 1
   25907    24844    24875 1
   25908    24844    24876 1
   25909    24844    24877 1
   25910    24878    24879 1
   25911    24878    24894 1
   25912    24878    24895 1
   25913    24879    24880 1
   25914    24879    24896 1
   25915    24879    24897 1
   25916    24880    24881 1
   25917    24880    24898 1
   25918    24880    24899 1
   25919    24881    24882 1
   25920    24881    24900 1
   25921    24881    24901 1
   25922    24882    24883 1
   25923    24882    24902 1
   25924    24882    24903 1
   25925    24883    24884 1
   25926    24883    24904 1
   25927    24883    24905 1
   25928    24884    24885 1
   25929    24884    24906 1
   25930    24884    24907 1
   25931    24885    24886 1
   25932    24885    24908 1
   25933    24885    24909 1
   25934    24886    24887 1
   25935    24886    24910 1
   25936    24886    24911 1
   25937    24887    24888 1
   25938    24887    24912 1
   25939    24887    24913 1
   25940    24888    24889 1
   25941    24888    24914 1
   25942    24888    24915 1
   25943    24889    24890 1
   25944    24889    24916 1
   25945    24889    24917 1
   25946    24890    24891 1
   25947    24890    24918 1
   25948    24890    24919 1
   25949    24891    24892 1
   25950    24891    24920 1
   25951    24891    24921 1
   25952    24892    24893 1
   25953    24892    24922 1
   25954    24892    24923 1
   25955    24893    24924 1
   25956    24893    24925 1
   25957    24893    24926 1
   25958    24927    24928 1
   25959    24927    24934 1
   25960    24927    24950 1
   25961    24927    24999 1
   25962    24928    24929 1
   25963    24928    24932 1
   25964    24929    24930 1
   25965    24929    24933 1
   25966    24930    24931 1
   25967    24931    24932 1
   25968    24932    24938 1
   25969    24933    24934 1
   25970    24933    24937 1
   25971    24934    24935 1
   25972    24935    24936 1
   25973    24935    24939 1
   25974    24936    24937 1
   25975    24936    24948 1
   25976    24940    24941 1
   25977    24940    24948 1
   25978    24941    24942 1
   25979    24941    24949 1
   25980    24942    24943 1
   25981    24942    25052 1
   25982    24943    24944 1
   25983    24943    24947 1
   25984    24944    24945 1
   25985    24945    24946 1
   25986    24946    24947 1
   25987    24947    24948 1
   25988    24950    24951 1
   25989    24950    24966 1
   25990    24950    24967 1
   25991    24951    24952 1
   25992    24951    24968 1
   25993    24951    24969 1
   25994    24952    24953 1
   25995    24952    24970 1
   25996    24952    24971 1
   25997    24953    24954 1
   25998    24953    24972 1
   25999    24953    24973 1
   26000    24954    24955 1
   26001    24954    24974 1
   26002    24954    24975 1
   26003    24955    24956 1
   26004    24955    24976 1
   26005    24955    24977 1
   26006    24956    24957 1
   26007    24956    24978 1
   26008    24956    24979 1
   26009    24957    24958 1
   26010    24957    24980 1
   26011    24957    24981 1
   26012    24958    24959 1
   26013    24958    24982 1
   26014    24958    24983 1
   26015    24959    24960 1
   26016    24959    24984 1
   26017    24959    24985 1
   26018    24960    24961 1
   26019    24960    24986 1
   26020    24960    24987 1
   26021    24961    24962 1
   26022    24961    24988 1
   26023    24961    24989 1
   26024    24962    24963 1
   26025    24962    24990 1
   26026    24962    24991 1
   26027    24963    24964 1
   26028    24963    24992 1
   26029    24963    24993 1
   26030    24964    24965 1
   26031    24964    24994 1
   26032    24964    24995 1
   26033    24965    24996 1
   26034    24965    24997 1
   26035    24965    24998 1
   26036    24999    25000 1
   26037    24999    25015 1
   26038    24999    25016 1
   26039    25000    25001 1
   26040    25000    25017 1
   26041    25000    25018 1
   26042    25001    25002 1
   26043    25001    25019 1
   26044    25001    25020 1
   26045    25002    25003 1
   26046    25002    25021 1
   26047    25002    25022 1
   26048    25003    25004 1
   26049    25003    25023 1
   26050    25003    25024 1
   26051    25004    25005 1
   26052    25004    25025 1
   26053    25004    25026 1
   26054    25005    25006 1
   26055    25005    25027 1
   26056    25005    25028 1
   26057    25006    25007 1
   26058    25006    25029 1
   26059    25006    25030 1
   26060    25007    25008 1
   26061    25007    25031 1
   26062    25007    25032 1
   26063    25008    25009 1
   26064    25008    25033 1
   26065    25008    25034 1
   26066    25009    25010 1
   26067    25009    25035 1
   26068    25009    25036 1
   26069    25010    25011 1
   26070    25010    25037 1
   26071    25010    25038 1
   26072    25011    25012 1
   26073    25011    25039 1
   26074    25011    25040 1
   26075    25012    25013 1
   26076    25012    25041 1
   26077    25012    25042 1
   26078    25013    25014 1
   26079    25013    25043 1
   26080    25013    25044 1
   26081    25014    25045 1
   26082    25014    25046 1
   26083    25014    25047 1
   26084    25048    25049 1
   26085    25048    25055 1
   26086    25048    25071 1
   26087    25048    25120 1
   26088    25049    25050 1
   26089    25049    25053 1
   26090    25050    25051 1
   26091    25050    25054 1
   26092    25051    25052 1
   26093    25052    25053 1
   26094    25053    25059 1
   26095    25054    25055 1
   26096    25054    25058 1
   26097    25055    25056 1
   26098    25056    25057 1
   26099    25056    25060 1
   26100    25057    25058 1
   26101    25057    25069 1
   26102    25061    25062 1
   26103    25061    25069 1
   26104    25062    25063 1
   26105    25062    25070 1
   26106    25063    25064 1
   26107    25063    25173 1
   26108    25064    25065 1
   26109    25064    25068 1
   26110    25065    25066 1
   26111    25066    25067 1
   26112    25067    25068 1
   26113    25068    25069 1
   26114    25071    25072 1
   26115    25071    25087 1
   26116    25071    25088 1
   26117    25072    25073 1
   26118    25072    25089 1
   26119    25072    25090 1
   26120    25073    25074 1
   26121    25073    25091 1
   26122    25073    25092 1
   26123    25074    25075 1
   26124    25074    25093 1
   26125    25074    25094 1
   26126    25075    25076 1
   26127    25075    25095 1
   26128    25075    25096 1
   26129    25076    25077 1
   26130    25076    25097 1
   26131    25076    25098 1
   26132    25077    25078 1
   26133    25077    25099 1
   26134    25077    25100 1
   26135    25078    25079 1
   26136    25078    25101 1
   26137    25078    25102 1
   26138    25079    25080 1
   26139    25079    25103 1
   26140    25079    25104 1
   26141    25080    25081 1
   26142    25080    25105 1
   26143    25080    25106 1
   26144    25081    25082 1
   26145    25081    25107 1
   26146    25081    25108 1
   26147    25082    25083 1
   26148    25082    25109 1
   26149    25082    25110 1
   26150    25083    25084 1
   26151    25083    25111 1
   26152    25083    25112 1
   26153    25084    25085 1
   26154    25084    25113 1
   26155    25084    25114 1
   26156    25085    25086 1
   26157    25085    25115 1
   26158    25085    25116 1
   26159    25086    25117 1
   26160    25086    25118 1
   26161    25086    25119 1
   26162    25120    25121 1
   26163    25120    25136 1
   26164    25120    25137 1
   26165    25121    25122 1
   26166    25121    25138 1
   26167    25121    25139 1
   26168    25122    25123 1
   26169    25122    25140 1
   26170    25122    25141 1
   26171    25123    25124 1
   26172    25123    25142 1
   26173    25123    25143 1
   26174    25124    25125 1
   26175    25124    25144 1
   26176    25124    25145 1
   26177    25125    25126 1
   26178    25125    25146 1
   26179    25125    25147 1
   26180    25126    25127 1
   26181    25126    25148 1
   26182    25126    25149 1
   26183    25127    25128 1
   26184    25127    25150 1
   26185    25127    25151 1
   26186    25128    25129 1
   26187    25128    25152 1
   26188    25128    25153 1
   26189    25129    25130 1
   26190    25129    25154 1
   26191    25129    25155 1
   26192    25130    25131 1
   26193    25130    25156 1
   26194    25130    25157 1
   26195    25131    25132 1
   26196    25131    25158 1
   26197    25131    25159 1
   26198    25132    25133 1
   26199    25132    25160 1
   26200    25132    25161 1
   26201    25133    25134 1
   26202    25133    25162 1
   26203    25133    25163 1
   26204    25134    25135 1
   26205    25134    25164 1
   26206    25134    25165 1
   26207    25135    25166 1
   26208    25135    25167 1
   26209    25135    25168 1
   26210    25169    25170 1
   26211    25169    25176 1
   26212    25169    25192 1
   26213    25169    25241 1
   26214    25170    25171 1
   26215    25170    25174 1
   26216    25171    25172 1
   26217    25171    25175 1
   26218    25172    25173 1
   26219    25173    25174 1
   26220    25174    25180 1
   26221    25175    25176 1
   26222    25175    25179 1
   26223    25176    25177 1
   26224    25177    25178 1
   26225    25177    25181 1
   26226    25178    25179 1
   26227    25178    25190 1
   26228    25182    25183 1
   26229    25182    25190 1
   26230    25183    25184 1
   26231    25183    25191 1
   26232    25184    25185 1
   26233    25184    25294 1
   26234    25185    25186 1
   26235    25185    25189 1
   26236    25186    25187 1
   26237    25187    25188 1
   26238    25188    25189 1
   26239    25189    25190 1
   26240    25192    25193 1
   26241    25192    25208 1
   26242    25192    25209 1
   26243    25193    25194 1
   26244    25193    25210 1
   26245    25193    25211 1
   26246    25194    25195 1
   26247    25194    25212 1
   26248    25194    25213 1
   26249    25195    25196 1
   26250    25195    25214 1
   26251    25195    25215 1
   26252    25196    25197 1
   26253    25196    25216 1
   26254    25196    25217 1
   26255    25197    25198 1
   26256    25197    25218 1
   26257    25197    25219 1
   26258    25198    25199 1
   26259    25198    25220 1
   26260    25198    25221 1
   26261    25199    25200 1
   26262    25199    25222 1
   26263    25199    25223 1
   26264    25200    25201 1
   26265    25200    25224 1
   26266    25200    25225 1
   26267    25201    25202 1
   26268    25201    25226 1
   26269    25201    25227 1
   26270    25202    25203 1
   26271    25202    25228 1
   26272    25202    25229 1
   26273    25203    25204 1
   26274    25203    25230 1
   26275    25203    25231 1
   26276    25204    25205 1
   26277    25204    25232 1
   26278    25204    25233 1
   26279    25205    25206 1
   26280    25205    25234 1
   26281    25205    25235 1
   26282    25206    25207 1
   26283    25206    25236 1
   26284    25206    25237 1
   26285    25207    25238 1
   26286    25207    25239 1
   26287    25207    25240 1
   26288    25241    25242 1
   26289    25241    25257 1
   26290    25241    25258 1
   26291    25242    25243 1
   26292    25242    25259 1
   26293    25242    25260 1
   26294    25243    25244 1
   26295    25243    25261 1
   26296    25243    25262 1
   26297    25244    25245 1
   26298    25244    25263 1
   26299    25244    25264 1
   26300    25245    25246 1
   26301    25245    25265 1
   26302    25245    25266 1
   26303    25246    25247 1
   26304    25246    25267 1
   26305    25246    25268 1
   26306    25247    25248 1
   26307    25247    25269 1
   26308    25247    25270 1
   26309    25248    25249 1
   26310    25248    25271 1
   26311    25248    25272 1
   26312    25249    25250 1
   26313    25249    25273 1
   26314    25249    25274 1
   26315    25250    25251 1
   26316    25250    25275 1
   26317    25250    25276 1
   26318    25251    25252 1
   26319    25251    25277 1
   26320    25251    25278 1
   26321    25252    25253 1
   26322    25252    25279 1
   26323    25252    25280 1
   26324    25253    25254 1
   26325    25253    25281 1
   26326    25253    25282 1
   26327    25254    25255 1
   26328    25254    25283 1
   26329    25254    25284 1
   26330    25255    25256 1
   26331    25255    25285 1
   26332    25255    25286 1
   26333    25256    25287 1
   26334    25256    25288 1
   26335    25256    25289 1
   26336    25290    25291 1
   26337    25290    25297 1
   26338    25290    25313 1
   26339    25290    25362 1
   26340    25291    25292 1
   26341    25291    25295 1
   26342    25292    25293 1
   26343    25292    25296 1
   26344    25293    25294 1
   26345    25294    25295 1
   26346    25295    25301 1
   26347    25296    25297 1
   26348    25296    25300 1
   26349    25297    25298 1
   26350    25298    25299 1
   26351    25298    25302 1
   26352    25299    25300 1
   26353    25299    25311 1
   26354    25303    25304 1
   26355    25303    25311 1
   26356    25304    25305 1
   26357    25304    25312 1
   26358    25305    25306 1
   26359    25305    25415 1
   26360    25306    25307 1
   26361    25306    25310 1
   26362    25307    25308 1
   26363    25308    25309 1
   26364    25309    25310 1
   26365    25310    25311 1
   26366    25313    25314 1
   26367    25313    25329 1
   26368    25313    25330 1
   26369    25314    25315 1
   26370    25314    25331 1
   26371    25314    25332 1
   26372    25315    25316 1
   26373    25315    25333 1
   26374    25315    25334 1
   26375    25316    25317 1
   26376    25316    25335 1
   26377    25316    25336 1
   26378    25317    25318 1
   26379    25317    25337 1
   26380    25317    25338 1
   26381    25318    25319 1
   26382    25318    25339 1
   26383    25318    25340 1
   26384    25319    25320 1
   26385    25319    25341 1
   26386    25319    25342 1
   26387    25320    25321 1
   26388    25320    25343 1
   26389    25320    25344 1
   26390    25321    25322 1
   26391    25321    25345 1
   26392    25321    25346 1
   26393    25322    25323 1
   26394    25322    25347 1
   26395    25322    25348 1
   26396    25323    25324 1
   26397    25323    25349 1
   26398    25323    25350 1
   26399    25324    25325 1
   26400    25324    25351 1
   26401    25324    25352 1
   26402    25325    25326 1
   26403    25325    25353 1
   26404    25325    25354 1
   26405    25326    25327 1
   26406    25326    25355 1
   26407    25326    25356 1
   26408    25327    25328 1
   26409    25327    25357 1
   26410    25327    25358 1
   26411    25328    25359 1
   26412    25328    25360 1
   26413    25328    25361 1
   26414    25362    25363 1
   26415    25362    25378 1
   26416    25362    25379 1
   26417    25363    25364 1
   26418    25363    25380 1
   26419    25363    25381 1
   26420    25364    25365 1
   26421    25364    25382 1
   26422    25364    25383 1
   26423    25365    25366 1
   26424    25365    25384 1
   26425    25365    25385 1
   26426    25366    25367 1
   26427    25366    25386 1
   26428    25366    25387 1
   26429    25367    25368 1
   26430    25367    25388 1
   26431    25367    25389 1
   26432    25368    25369 1
   26433    25368    25390 1
   26434    25368    25391 1
   26435    25369    25370 1
   26436    25369    25392 1
   26437    25369    25393 1
   26438    25370    25371 1
   26439    25370    25394 1
   26440    25370    25395 1
   26441    25371    25372 1
   26442    25371    25396 1
   26443    25371    25397 1
   26444    25372    25373 1
   26445    25372    25398 1
   26446    25372    25399 1
   26447    25373    25374 1
   26448    25373    25400 1
   26449    25373    25401 1
   26450    25374    25375 1
   26451    25374    25402 1
   26452    25374    25403 1
   26453    25375    25376 1
   26454    25375    25404 1
   26455    25375    25405 1
   26456    25376    25377 1
   26457    25376    25406 1
   26458    25376    25407 1
   26459    25377    25408 1
   26460    25377    25409 1
   26461    25377    25410 1
   26462    25411    25412 1
   26463    25411    25418 1
   26464    25411    25434 1
   26465    25411    25483 1
   26466    25412    25413 1
   26467    25412    25416 1
   26468    25413    25414 1
   26469    25413    25417 1
   26470    25414    25415 1
   26471    25415    25416 1
   26472    25416    25422 1
   26473    25417    25418 1
   26474    25417    25421 1
   26475    25418    25419 1
   26476    25419    25420 1
   26477    25419    25423 1
   26478    25420    25421 1
   26479    25420    25432 1
   26480    25424    25425 1
   26481    25424    25432 1
   26482    25425    25426 1
   26483    25425    25433 1
   26484    25426    25427 1
   26485    25426    25536 1
   26486    25427    25428 1
   26487    25427    25431 1
   26488    25428    25429 1
   26489    25429    25430 1
   26490    25430    25431 1
   26491    25431    25432 1
   26492    25434    25435 1
   26493    25434    25450 1
   26494    25434    25451 1
   26495    25435    25436 1
   26496    25435    25452 1
   26497    25435    25453 1
   26498    25436    25437 1
   26499    25436    25454 1
   26500    25436    25455 1
   26501    25437    25438 1
   26502    25437    25456 1
   26503    25437    25457 1
   26504    25438    25439 1
   26505    25438    25458 1
   26506    25438    25459 1
   26507    25439    25440 1
   26508    25439    25460 1
   26509    25439    25461 1
   26510    25440    25441 1
   26511    25440    25462 1
   26512    25440    25463 1
   26513    25441    25442 1
   26514    25441    25464 1
   26515    25441    25465 1
   26516    25442    25443 1
   26517    25442    25466 1
   26518    25442    25467 1
   26519    25443    25444 1
   26520    25443    25468 1
   26521    25443    25469 1
   26522    25444    25445 1
   26523    25444    25470 1
   26524    25444    25471 1
   26525    25445    25446 1
   26526    25445    25472 1
   26527    25445    25473 1
   26528    25446    25447 1
   26529    25446    25474 1
   26530    25446    25475 1
   26531    25447    25448 1
   26532    25447    25476 1
   26533    25447    25477 1
   26534    25448    25449 1
   26535    25448    25478 1
   26536    25448    25479 1
   26537    25449    25480 1
   26538    25449    25481 1
   26539    25449    25482 1
   26540    25483    25484 1
   26541    25483    25499 1
   26542    25483    25500 1
   26543    25484    25485 1
   26544    25484    25501 1
   26545    25484    25502 1
   26546    25485    25486 1
   26547    25485    25503 1
   26548    25485    25504 1
   26549    25486    25487 1
   26550    25486    25505 1
   26551    25486    25506 1
   26552    25487    25488 1
   26553    25487    25507 1
   26554    25487    25508 1
   26555    25488    25489 1
   26556    25488    25509 1
   26557    25488    25510 1
   26558    25489    25490 1
   26559    25489    25511 1
   26560    25489    25512 1
   26561    25490    25491 1
   26562    25490    25513 1
   26563    25490    25514 1
   26564    25491    25492 1
   26565    25491    25515 1
   26566    25491    25516 1
   26567    25492    25493 1
   26568    25492    25517 1
   26569    25492    25518 1
   26570    25493    25494 1
   26571    25493    25519 1
   26572    25493    25520 1
   26573    25494    25495 1
   26574    25494    25521 1
   26575    25494    25522 1
   26576    25495    25496 1
   26577    25495    25523 1
   26578    25495    25524 1
   26579    25496    25497 1
   26580    25496    25525 1
   26581    25496    25526 1
   26582    25497    25498 1
   26583    25497    25527 1
   26584    25497    25528 1
   26585    25498    25529 1
   26586    25498    25530 1
   26587    25498    25531 1
   26588    25532    25533 1
   26589    25532    25539 1
   26590    25532    25555 1
   26591    25532    25604 1
   26592    25533    25534 1
   26593    25533    25537 1
   26594    25534    25535 1
   26595    25534    25538 1
   26596    25535    25536 1
   26597    25536    25537 1
   26598    25537    25543 1
   26599    25538    25539 1
   26600    25538    25542 1
   26601    25539    25540 1
   26602    25540    25541 1
   26603    25540    25544 1
   26604    25541    25542 1
   26605    25541    25553 1
   26606    25545    25546 1
   26607    25545    25553 1
   26608    25546    25547 1
   26609    25546    25554 1
   26610    25547    25548 1
   26611    25547    25657 1
   26612    25548    25549 1
   26613    25548    25552 1
   26614    25549    25550 1
   26615    25550    25551 1
   26616    25551    25552 1
   26617    25552    25553 1
   26618    25555    25556 1
   26619    25555    25571 1
   26620    25555    25572 1
   26621    25556    25557 1
   26622    25556    25573 1
   26623    25556    25574 1
   26624    25557    25558 1
   26625    25557    25575 1
   26626    25557    25576 1
   26627    25558    25559 1
   26628    25558    25577 1
   26629    25558    25578 1
   26630    25559    25560 1
   26631    25559    25579 1
   26632    25559    25580 1
   26633    25560    25561 1
   26634    25560    25581 1
   26635    25560    25582 1
   26636    25561    25562 1
   26637    25561    25583 1
   26638    25561    25584 1
   26639    25562    25563 1
   26640    25562    25585 1
   26641    25562    25586 1
   26642    25563    25564 1
   26643    25563    25587 1
   26644    25563    25588 1
   26645    25564    25565 1
   26646    25564    25589 1
   26647    25564    25590 1
   26648    25565    25566 1
   26649    25565    25591 1
   26650    25565    25592 1
   26651    25566    25567 1
   26652    25566    25593 1
   26653    25566    25594 1
   26654    25567    25568 1
   26655    25567    25595 1
   26656    25567    25596 1
   26657    25568    25569 1
   26658    25568    25597 1
   26659    25568    25598 1
   26660    25569    25570 1
   26661    25569    25599 1
   26662    25569    25600 1
   26663    25570    25601 1
   26664    25570    25602 1
   26665    25570    25603 1
   26666    25604    25605 1
   26667    25604    25620 1
   26668    25604    25621 1
   26669    25605    25606 1
   26670    25605    25622 1
   26671    25605    25623 1
   26672    25606    25607 1
   26673    25606    25624 1
   26674    25606    25625 1
   26675    25607    25608 1
   26676    25607    25626 1
   26677    25607    25627 1
   26678    25608    25609 1
   26679    25608    25628 1
   26680    25608    25629 1
   26681    25609    25610 1
   26682    25609    25630 1
   26683    25609    25631 1
   26684    25610    25611 1
   26685    25610    25632 1
   26686    25610    25633 1
   26687    25611    25612 1
   26688    25611    25634 1
   26689    25611    25635 1
   26690    25612    25613 1
   26691    25612    25636 1
   26692    25612    25637 1
   26693    25613    25614 1
   26694    25613    25638 1
   26695    25613    25639 1
   26696    25614    25615 1
   26697    25614    25640 1
   26698    25614    25641 1
   26699    25615    25616 1
   26700    25615    25642 1
   26701    25615    25643 1
   26702    25616    25617 1
   26703    25616    25644 1
   26704    25616    25645 1
   26705    25617    25618 1
   26706    25617    25646 1
   26707    25617    25647 1
   26708    25618    25619 1
   26709    25618    25648 1
   26710    25618    25649 1
   26711    25619    25650 1
   26712    25619    25651 1
   26713    25619    25652 1
   26714    25653    25654 1
   26715    25653    25660 1
   26716    25653    25676 1
   26717    25653    25725 1
   26718    25654    25655 1
   26719    25654    25658 1
   26720    25655    25656 1
   26721    25655    25659 1
   26722    25656    25657 1
   26723    25657    25658 1
   26724    25658    25664 1
   26725    25659    25660 1
   26726    25659    25663 1
   26727    25660    25661 1
   26728    25661    25662 1
   26729    25661    25665 1
   26730    25662    25663 1
   26731    25662    25674 1
   26732    25666    25667 1
   26733    25666    25674 1
   26734    25667    25668 1
   26735    25667    25675 1
   26736    25668    25669 1
   26737    25668    25778 1
   26738    25669    25670 1
   26739    25669    25673 1
   26740    25670    25671 1
   26741    25671    25672 1
   26742    25672    25673 1
   26743    25673    25674 1
   26744    25676    25677 1
   26745    25676    25692 1
   26746    25676    25693 1
   26747    25677    25678 1
   26748    25677    25694 1
   26749    25677    25695 1
   26750    25678    25679 1
   26751    25678    25696 1
   26752    25678    25697 1
   26753    25679    25680 1
   26754    25679    25698 1
   26755    25679    25699 1
   26756    25680    25681 1
   26757    25680    25700 1
   26758    25680    25701 1
   26759    25681    25682 1
   26760    25681    25702 1
   26761    25681    25703 1
   26762    25682    25683 1
   26763    25682    25704 1
   26764    25682    25705 1
   26765    25683    25684 1
   26766    25683    25706 1
   26767    25683    25707 1
   26768    25684    25685 1
   26769    25684    25708 1
   26770    25684    25709 1
   26771    25685    25686 1
   26772    25685    25710 1
   26773    25685    25711 1
   26774    25686    25687 1
   26775    25686    25712 1
   26776    25686    25713 1
   26777    25687    25688 1
   26778    25687    25714 1
   26779    25687    25715 1
   26780    25688    25689 1
   26781    25688    25716 1
   26782    25688    25717 1
   26783    25689    25690 1
   26784    25689    25718 1
   26785    25689    25719 1
   26786    25690    25691 1
   26787    25690    25720 1
   26788    25690    25721 1
   26789    25691    25722 1
   26790    25691    25723 1
   26791    25691    25724 1
   26792    25725    25726 1
   26793    25725    25741 1
   26794    25725    25742 1
   26795    25726    25727 1
   26796    25726    25743 1
   26797    25726    25744 1
   26798    25727    25728 1
   26799    25727    25745 1
   26800    25727    25746 1
   26801    25728    25729 1
   26802    25728    25747 1
   26803    25728    25748 1
   26804    25729    25730 1
   26805    25729    25749 1
   26806    25729    25750 1
   26807    25730    25731 1
   26808    25730    25751 1
   26809    25730    25752 1
   26810    25731    25732 1
   26811    25731    25753 1
   26812    25731    25754 1
   26813    25732    25733 1
   26814    25732    25755 1
   26815    25732    25756 1
   26816    25733    25734 1
   26817    25733    25757 1
   26818    25733    25758 1
   26819    25734    25735 1
   26820    25734    25759 1
   26821    25734    25760 1
   26822    25735    25736 1
   26823    25735    25761 1
   26824    25735    25762 1
   26825    25736    25737 1
   26826    25736    25763 1
   26827    25736    25764 1
   26828    25737    25738 1
   26829    25737    25765 1
   26830    25737    25766 1
   26831    25738    25739 1
   26832    25738    25767 1
   26833    25738    25768 1
   26834    25739    25740 1
   26835    25739    25769 1
   26836    25739    25770 1
   26837    25740    25771 1
   26838    25740    25772 1
   26839    25740    25773 1
   26840    25774    25775 1
   26841    25774    25781 1
   26842    25774    25797 1
   26843    25774    25846 1
   26844    25775    25776 1
   26845    25775    25779 1
   26846    25776    25777 1
   26847    25776    25780 1
   26848    25777    25778 1
   26849    25778    25779 1
   26850    25779    25785 1
   26851    25780    25781 1
   26852    25780    25784 1
   26853    25781    25782 1
   26854    25782    25783 1
   26855    25782    25786 1
   26856    25783    25784 1
   26857    25783    25795 1
   26858    25787    25788 1
   26859    25787    25795 1
   26860    25788    25789 1
   26861    25788    25796 1
   26862    25789    25790 1
   26863    25789    25899 1
   26864    25790    25791 1
   26865    25790    25794 1
   26866    25791    25792 1
   26867    25792    25793 1
   26868    25793    25794 1
   26869    25794    25795 1
   26870    25797    25798 1
   26871    25797    25813 1
   26872    25797    25814 1
   26873    25798    25799 1
   26874    25798    25815 1
   26875    25798    25816 1
   26876    25799    25800 1
   26877    25799    25817 1
   26878    25799    25818 1
   26879    25800    25801 1
   26880    25800    25819 1
   26881    25800    25820 1
   26882    25801    25802 1
   26883    25801    25821 1
   26884    25801    25822 1
   26885    25802    25803 1
   26886    25802    25823 1
   26887    25802    25824 1
   26888    25803    25804 1
   26889    25803    25825 1
   26890    25803    25826 1
   26891    25804    25805 1
   26892    25804    25827 1
   26893    25804    25828 1
   26894    25805    25806 1
   26895    25805    25829 1
   26896    25805    25830 1
   26897    25806    25807 1
   26898    25806    25831 1
   26899    25806    25832 1
   26900    25807    25808 1
   26901    25807    25833 1
   26902    25807    25834 1
   26903    25808    25809 1
   26904    25808    25835 1
   26905    25808    25836 1
   26906    25809    25810 1
   26907    25809    25837 1
   26908    25809    25838 1
   26909    25810    25811 1
   26910    25810    25839 1
   26911    25810    25840 1
   26912    25811    25812 1
   26913    25811    25841 1
   26914    25811    25842 1
   26915    25812    25843 1
   26916    25812    25844 1
   26917    25812    25845 1
   26918    25846    25847 1
   26919    25846    25862 1
   26920    25846    25863 1
   26921    25847    25848 1
   26922    25847    25864 1
   26923    25847    25865 1
   26924    25848    25849 1
   26925    25848    25866 1
   26926    25848    25867 1
   26927    25849    25850 1
   26928    25849    25868 1
   26929    25849    25869 1
   26930    25850    25851 1
   26931    25850    25870 1
   26932    25850    25871 1
   26933    25851    25852 1
   26934    25851    25872 1
   26935    25851    25873 1
   26936    25852    25853 1
   26937    25852    25874 1
   26938    25852    25875 1
   26939    25853    25854 1
   26940    25853    25876 1
   26941    25853    25877 1
   26942    25854    25855 1
   26943    25854    25878 1
   26944    25854    25879 1
   26945    25855    25856 1
   26946    25855    25880 1
   26947    25855    25881 1
   26948    25856    25857 1
   26949    25856    25882 1
   26950    25856    25883 1
   26951    25857    25858 1
   26952    25857    25884 1
   26953    25857    25885 1
   26954    25858    25859 1
   26955    25858    25886 1
   26956    25858    25887 1
   26957    25859    25860 1
   26958    25859    25888 1
   26959    25859    25889 1
   26960    25860    25861 1
   26961    25860    25890 1
   26962    25860    25891 1
   26963    25861    25892 1
   26964    25861    25893 1
   26965    25861    25894 1
   26966    25895    25896 1
   26967    25895    25902 1
   26968    25895    25918 1
   26969    25895    25967 1
   26970    25896    25897 1
   26971    25896    25900 1
   26972    25897    25898 1
   26973    25897    25901 1
   26974    25898    25899 1
   26975    25899    25900 1
   26976    25900    25906 1
   26977    25901    25902 1
   26978    25901    25905 1
   26979    25902    25903 1
   26980    25903    25904 1
   26981    25903    25907 1
   26982    25904    25905 1
   26983    25904    25916 1
   26984    25908    25909 1
   26985    25908    25916 1
   26986    25909    25910 1
   26987    25909    25917 1
   26988    25910    25911 1
   26989    25910    26020 1
   26990    25911    25912 1
   26991    25911    25915 1
   26992    25912    25913 1
   26993    25913    25914 1
   26994    25914    25915 1
   26995    25915    25916 1
   26996    25918    25919 1
   26997    25918    25934 1
   26998    25918    25935 1
   26999    25919    25920 1
   27000    25919    25936 1
   27001    25919    25937 1
   27002    25920    25921 1
   27003    25920    25938 1
   27004    25920    25939 1
   27005    25921    25922 1
   27006    25921    25940 1
   27007    25921    25941 1
   27008    25922    25923 1
   27009    25922    25942 1
   27010    25922    25943 1
   27011    25923    25924 1
   27012    25923    25944 1
   27013    25923    25945 1
   27014    25924    25925 1
   27015    25924    25946 1
   27016    25924    25947 1
   27017    25925    25926 1
   27018    25925    25948 1
   27019    25925    25949 1
   27020    25926    25927 1
   27021    25926    25950 1
   27022    25926    25951 1
   27023    25927    25928 1
   27024    25927    25952 1
   27025    25927    25953 1
   27026    25928    25929 1
   27027    25928    25954 1
   27028    25928    25955 1
   27029    25929    25930 1
   27030    25929    25956 1
   27031    25929    25957 1
   27032    25930    25931 1
   27033    25930    25958 1
   27034    25930    25959 1
   27035    25931    25932 1
   27036    25931    25960 1
   27037    25931    25961 1
   27038    25932    25933 1
   27039    25932    25962 1
   27040    25932    25963 1
   27041    25933    25964 1
   27042    25933    25965 1
   27043    25933    25966 1
   27044    25967    25968 1
   27045    25967    25983 1
   27046    25967    25984 1
   27047    25968    25969 1
   27048    25968    25985 1
   27049    25968    25986 1
   27050    25969    25970 1
   27051    25969    25987 1
   27052    25969    25988 1
   27053    25970    25971 1
   27054    25970    25989 1
   27055    25970    25990 1
   27056    25971    25972 1
   27057    25971    25991 1
   27058    25971    25992 1
   27059    25972    25973 1
   27060    25972    25993 1
   27061    25972    25994 1
   27062    25973    25974 1
   27063    25973    25995 1
   27064    25973    25996 1
   27065    25974    25975 1
   27066    25974    25997 1
   27067    25974    25998 1
   27068    25975    25976 1
   27069    25975    25999 1
   27070    25975    26000 1
   27071    25976    25977 1
   27072    25976    26001 1
   27073    25976    26002 1
   27074    25977    25978 1
   27075    25977    26003 1
   27076    25977    26004 1
   27077    25978    25979 1
   27078    25978    26005 1
   27079    25978    26006 1
   27080    25979    25980 1
   27081    25979    26007 1
   27082    25979    26008 1
   27083    25980    25981 1
   27084    25980    26009 1
   27085    25980    26010 1
   27086    25981    25982 1
   27087    25981    26011 1
   27088    25981    26012 1
   27089    25982    26013 1
   27090    25982    26014 1
   27091    25982    26015 1
   27092    26016    26017 1
   27093    26016    26023 1
   27094    26016    26039 1
   27095    26016    26088 1
   27096    26017    26018 1
   27097    26017    26021 1
   27098    26018    26019 1
   27099    26018    26022 1
   27100    26019    26020 1
   27101    26020    26021 1
   27102    26021    26027 1
   27103    26022    26023 1
   27104    26022    26026 1
   27105    26023    26024 1
   27106    26024    26025 1
   27107    26024    26028 1
   27108    26025    26026 1
   27109    26025    26037 1
   27110    26029    26030 1
   27111    26029    26037 1
   27112    26030    26031 1
   27113    26030    26038 1
   27114    26031    26032 1
   27115    26031    26141 1
   27116    26032    26033 1
   27117    26032    26036 1
   27118    26033    26034 1
   27119    26034    26035 1
   27120    26035    26036 1
   27121    26036    26037 1
   27122    26039    26040 1
   27123    26039    26055 1
   27124    26039    26056 1
   27125    26040    26041 1
   27126    26040    26057 1
   27127    26040    26058 1
   27128    26041    26042 1
   27129    26041    26059 1
   27130    26041    26060 1
   27131    26042    26043 1
   27132    26042    26061 1
   27133    26042    26062 1
   27134    26043    26044 1
   27135    26043    26063 1
   27136    26043    26064 1
   27137    26044    26045 1
   27138    26044    26065 1
   27139    26044    26066 1
   27140    26045    26046 1
   27141    26045    26067 1
   27142    26045    26068 1
   27143    26046    26047 1
   27144    26046    26069 1
   27145    26046    26070 1
   27146    26047    26048 1
   27147    26047    26071 1
   27148    26047    26072 1
   27149    26048    26049 1
   27150    26048    26073 1
   27151    26048    26074 1
   27152    26049    26050 1
   27153    26049    26075 1
   27154    26049    26076 1
   27155    26050    26051 1
   27156    26050    26077 1
   27157    26050    26078 1
   27158    26051    26052 1
   27159    26051    26079 1
   27160    26051    26080 1
   27161    26052    26053 1
   27162    26052    26081 1
   27163    26052    26082 1
   27164    26053    26054 1
   27165    26053    26083 1
   27166    26053    26084 1
   27167    26054    26085 1
   27168    26054    26086 1
   27169    26054    26087 1
   27170    26088    26089 1
   27171    26088    26104 1
   27172    26088    26105 1
   27173    26089    26090 1
   27174    26089    26106 1
   27175    26089    26107 1
   27176    26090    26091 1
   27177    26090    26108 1
   27178    26090    26109 1
   27179    26091    26092 1
   27180    26091    26110 1
   27181    26091    26111 1
   27182    26092    26093 1
   27183    26092    26112 1
   27184    26092    26113 1
   27185    26093    26094 1
   27186    26093    26114 1
   27187    26093    26115 1
   27188    26094    26095 1
   27189    26094    26116 1
   27190    26094    26117 1
   27191    26095    26096 1
   27192    26095    26118 1
   27193    26095    26119 1
   27194    26096    26097 1
   27195    26096    26120 1
   27196    26096    26121 1
   27197    26097    26098 1
   27198    26097    26122 1
   27199    26097    26123 1
   27200    26098    26099 1
   27201    26098    26124 1
   27202    26098    26125 1
   27203    26099    26100 1
   27204    26099    26126 1
   27205    26099    26127 1
   27206    26100    26101 1
   27207    26100    26128 1
   27208    26100    26129 1
   27209    26101    26102 1
   27210    26101    26130 1
   27211    26101    26131 1
   27212    26102    26103 1
   27213    26102    26132 1
   27214    26102    26133 1
   27215    26103    26134 1
   27216    26103    26135 1
   27217    26103    26136 1
   27218    26137    26138 1
   27219    26137    26144 1
   27220    26137    26160 1
   27221    26137    26209 1
   27222    26138    26139 1
   27223    26138    26142 1
   27224    26139    26140 1
   27225    26139    26143 1
   27226    26140    26141 1
   27227    26141    26142 1
   27228    26142    26148 1
   27229    26143    26144 1
   27230    26143    26147 1
   27231    26144    26145 1
   27232    26145    26146 1
   27233    26145    26149 1
   27234    26146    26147 1
   27235    26146    26158 1
   27236    26150    26151 1
   27237    26150    26158 1
   27238    26151    26152 1
   27239    26151    26159 1
   27240    26152    26153 1
   27241    26152    26262 1
   27242    26153    26154 1
   27243    26153    26157 1
   27244    26154    26155 1
   27245    26155    26156 1
   27246    26156    26157 1
   27247    26157    26158 1
   27248    26160    26161 1
   27249    26160    26176 1
   27250    26160    26177 1
   27251    26161    26162 1
   27252    26161    26178 1
   27253    26161    26179 1
   27254    26162    26163 1
   27255    26162    26180 1
   27256    26162    26181 1
   27257    26163    26164 1
   27258    26163    26182 1
   27259    26163    26183 1
   27260    26164    26165 1
   27261    26164    26184 1
   27262    26164    26185 1
   27263    26165    26166 1
   27264    26165    26186 1
   27265    26165    26187 1
   27266    26166    26167 1
   27267    26166    26188 1
   27268    26166    26189 1
   27269    26167    26168 1
   27270    26167    26190 1
   27271    26167    26191 1
   27272    26168    26169 1
   27273    26168    26192 1
   27274    26168    26193 1
   27275    26169    26170 1
   27276    26169    26194 1
   27277    26169    26195 1
   27278    26170    26171 1
   27279    26170    26196 1
   27280    26170    26197 1
   27281    26171    26172 1
   27282    26171    26198 1
   27283    26171    26199 1
   27284    26172    26173 1
   27285    26172    26200 1
   27286    26172    26201 1
   27287    26173    26174 1
   27288    26173    26202 1
   27289    26173    26203 1
   27290    26174    26175 1
   27291    26174    26204 1
   27292    26174    26205 1
   27293    26175    26206 1
   27294    26175    26207 1
   27295    26175    26208 1
   27296    26209    26210 1
   27297    26209    26225 1
   27298    26209    26226 1
   27299    26210    26211 1
   27300    26210    26227 1
   27301    26210    26228 1
   27302    26211    26212 1
   27303    26211    26229 1
   27304    26211    26230 1
   27305    26212    26213 1
   27306    26212    26231 1
   27307    26212    26232 1
   27308    26213    26214 1
   27309    26213    26233 1
   27310    26213    26234 1
   27311    26214    26215 1
   27312    26214    26235 1
   27313    26214    26236 1
   27314    26215    26216 1
   27315    26215    26237 1
   27316    26215    26238 1
   27317    26216    26217 1
   27318    26216    26239 1
   27319    26216    26240 1
   27320    26217    26218 1
   27321    26217    26241 1
   27322    26217    26242 1
   27323    26218    26219 1
   27324    26218    26243 1
   27325    26218    26244 1
   27326    26219    26220 1
   27327    26219    26245 1
   27328    26219    26246 1
   27329    26220    26221 1
   27330    26220    26247 1
   27331    26220    26248 1
   27332    26221    26222 1
   27333    26221    26249 1
   27334    26221    26250 1
   27335    26222    26223 1
   27336    26222    26251 1
   27337    26222    26252 1
   27338    26223    26224 1
   27339    26223    26253 1
   27340    26223    26254 1
   27341    26224    26255 1
   27342    26224    26256 1
   27343    26224    26257 1
   27344    26258    26259 1
   27345    26258    26265 1
   27346    26258    26281 1
   27347    26258    26330 1
   27348    26259    26260 1
   27349    26259    26263 1
   27350    26260    26261 1
   27351    26260    26264 1
   27352    26261    26262 1
   27353    26262    26263 1
   27354    26263    26269 1
   27355    26264    26265 1
   27356    26264    26268 1
   27357    26265    26266 1
   27358    26266    26267 1
   27359    26266    26270 1
   27360    26267    26268 1
   27361    26267    26279 1
   27362    26271    26272 1
   27363    26271    26279 1
   27364    26272    26273 1
   27365    26272    26280 1
   27366    26273    26274 1
   27367    26273    26383 1
   27368    26274    26275 1
   27369    26274    26278 1
   27370    26275    26276 1
   27371    26276    26277 1
   27372    26277    26278 1
   27373    26278    26279 1
   27374    26281    26282 1
   27375    26281    26297 1
   27376    26281    26298 1
   27377    26282    26283 1
   27378    26282    26299 1
   27379    26282    26300 1
   27380    26283    26284 1
   27381    26283    26301 1
   27382    26283    26302 1
   27383    26284    26285 1
   27384    26284    26303 1
   27385    26284    26304 1
   27386    26285    26286 1
   27387    26285    26305 1
   27388    26285    26306 1
   27389    26286    26287 1
   27390    26286    26307 1
   27391    26286    26308 1
   27392    26287    26288 1
   27393    26287    26309 1
   27394    26287    26310 1
   27395    26288    26289 1
   27396    26288    26311 1
   27397    26288    26312 1
   27398    26289    26290 1
   27399    26289    26313 1
   27400    26289    26314 1
   27401    26290    26291 1
   27402    26290    26315 1
   27403    26290    26316 1
   27404    26291    26292 1
   27405    26291    26317 1
   27406    26291    26318 1
   27407    26292    26293 1
   27408    26292    26319 1
   27409    26292    26320 1
   27410    26293    26294 1
   27411    26293    26321 1
   27412    26293    26322 1
   27413    26294    26295 1
   27414    26294    26323 1
   27415    26294    26324 1
   27416    26295    26296 1
   27417    26295    26325 1
   27418    26295    26326 1
   27419    26296    26327 1
   27420    26296    26328 1
   27421    26296    26329 1
   27422    26330    26331 1
   27423    26330    26346 1
   27424    26330    26347 1
   27425    26331    26332 1
   27426    26331    26348 1
   27427    26331    26349 1
   27428    26332    26333 1
   27429    26332    26350 1
   27430    26332    26351 1
   27431    26333    26334 1
   27432    26333    26352 1
   27433    26333    26353 1
   27434    26334    26335 1
   27435    26334    26354 1
   27436    26334    26355 1
   27437    26335    26336 1
   27438    26335    26356 1
   27439    26335    26357 1
   27440    26336    26337 1
   27441    26336    26358 1
   27442    26336    26359 1
   27443    26337    26338 1
   27444    26337    26360 1
   27445    26337    26361 1
   27446    26338    26339 1
   27447    26338    26362 1
   27448    26338    26363 1
   27449    26339    26340 1
   27450    26339    26364 1
   27451    26339    26365 1
   27452    26340    26341 1
   27453    26340    26366 1
   27454    26340    26367 1
   27455    26341    26342 1
   27456    26341    26368 1
   27457    26341    26369 1
   27458    26342    26343 1
   27459    26342    26370 1
   27460    26342    26371 1
   27461    26343    26344 1
   27462    26343    26372 1
   27463    26343    26373 1
   27464    26344    26345 1
   27465    26344    26374 1
   27466    26344    26375 1
   27467    26345    26376 1
   27468    26345    26377 1
   27469    26345    26378 1
   27470    26379    26380 1
   27471    26379    26386 1
   27472    26379    26402 1
   27473    26379    26451 1
   27474    26380    26381 1
   27475    26380    26384 1
   27476    26381    26382 1
   27477    26381    26385 1
   27478    26382    26383 1
   27479    26383    26384 1
   27480    26384    26390 1
   27481    26385    26386 1
   27482    26385    26389 1
   27483    26386    26387 1
   27484    26387    26388 1
   27485    26387    26391 1
   27486    26388    26389 1
   27487    26388    26400 1
   27488    26392    26393 1
   27489    26392    26400 1
   27490    26393    26394 1
   27491    26393    26401 1
   27492    26394    26395 1
   27493    26394    26504 1
   27494    26395    26396 1
   27495    26395    26399 1
   27496    26396    26397 1
   27497    26397    26398 1
   27498    26398    26399 1
   27499    26399    26400 1
   27500    26402    26403 1
   27501    26402    26418 1
   27502    26402    26419 1
   27503    26403    26404 1
   27504    26403    26420 1
   27505    26403    26421 1
   27506    26404    26405 1
   27507    26404    26422 1
   27508    26404    26423 1
   27509    26405    26406 1
   27510    26405    26424 1
   27511    26405    26425 1
   27512    26406    26407 1
   27513    26406    26426 1
   27514    26406    26427 1
   27515    26407    26408 1
   27516    26407    26428 1
   27517    26407    26429 1
   27518    26408    26409 1
   27519    26408    26430 1
   27520    26408    26431 1
   27521    26409    26410 1
   27522    26409    26432 1
   27523    26409    26433 1
   27524    26410    26411 1
   27525    26410    26434 1
   27526    26410    26435 1
   27527    26411    26412 1
   27528    26411    26436 1
   27529    26411    26437 1
   27530    26412    26413 1
   27531    26412    26438 1
   27532    26412    26439 1
   27533    26413    26414 1
   27534    26413    26440 1
   27535    26413    26441 1
   27536    26414    26415 1
   27537    26414    26442 1
   27538    26414    26443 1
   27539    26415    26416 1
   27540    26415    26444 1
   27541    26415    26445 1
   27542    26416    26417 1
   27543    26416    26446 1
   27544    26416    26447 1
   27545    26417    26448 1
   27546    26417    26449 1
   27547    26417    26450 1
   27548    26451    26452 1
   27549    26451    26467 1
   27550    26451    26468 1
   27551    26452    26453 1
   27552    26452    26469 1
   27553    26452    26470 1
   27554    26453    26454 1
   27555    26453    26471 1
   27556    26453    26472 1
   27557    26454    26455 1
   27558    26454    26473 1
   27559    26454    26474 1
   27560    26455    26456 1
   27561    26455    26475 1
   27562    26455    26476 1
   27563    26456    26457 1
   27564    26456    26477 1
   27565    26456    26478 1
   27566    26457    26458 1
   27567    26457    26479 1
   27568    26457    26480 1
   27569    26458    26459 1
   27570    26458    26481 1
   27571    26458    26482 1
   27572    26459    26460 1
   27573    26459    26483 1
   27574    26459    26484 1
   27575    26460    26461 1
   27576    26460    26485 1
   27577    26460    26486 1
   27578    26461    26462 1
   27579    26461    26487 1
   27580    26461    26488 1
   27581    26462    26463 1
   27582    26462    26489 1
   27583    26462    26490 1
   27584    26463    26464 1
   27585    26463    26491 1
   27586    26463    26492 1
   27587    26464    26465 1
   27588    26464    26493 1
   27589    26464    26494 1
   27590    26465    26466 1
   27591    26465    26495 1
   27592    26465    26496 1
   27593    26466    26497 1
   27594    26466    26498 1
   27595    26466    26499 1
   27596    26500    26501 1
   27597    26500    26507 1
   27598    26500    26523 1
   27599    26500    26572 1
   27600    26501    26502 1
   27601    26501    26505 1
   27602    26502    26503 1
   27603    26502    26506 1
   27604    26503    26504 1
   27605    26504    26505 1
   27606    26505    26511 1
   27607    26506    26507 1
   27608    26506    26510 1
   27609    26507    26508 1
   27610    26508    26509 1
   27611    26508    26512 1
   27612    26509    26510 1
   27613    26509    26521 1
   27614    26513    26514 1
   27615    26513    26521 1
   27616    26514    26515 1
   27617    26514    26522 1
   27618    26515    26516 1
   27619    26515    26625 1
   27620    26516    26517 1
   27621    26516    26520 1
   27622    26517    26518 1
   27623    26518    26519 1
   27624    26519    26520 1
   27625    26520    26521 1
   27626    26523    26524 1
   27627    26523    26539 1
   27628    26523    26540 1
   27629    26524    26525 1
   27630    26524    26541 1
   27631    26524    26542 1
   27632    26525    26526 1
   27633    26525    26543 1
   27634    26525    26544 1
   27635    26526    26527 1
   27636    26526    26545 1
   27637    26526    26546 1
   27638    26527    26528 1
   27639    26527    26547 1
   27640    26527    26548 1
   27641    26528    26529 1
   27642    26528    26549 1
   27643    26528    26550 1
   27644    26529    26530 1
   27645    26529    26551 1
   27646    26529    26552 1
   27647    26530    26531 1
   27648    26530    26553 1
   27649    26530    26554 1
   27650    26531    26532 1
   27651    26531    26555 1
   27652    26531    26556 1
   27653    26532    26533 1
   27654    26532    26557 1
   27655    26532    26558 1
   27656    26533    26534 1
   27657    26533    26559 1
   27658    26533    26560 1
   27659    26534    26535 1
   27660    26534    26561 1
   27661    26534    26562 1
   27662    26535    26536 1
   27663    26535    26563 1
   27664    26535    26564 1
   27665    26536    26537 1
   27666    26536    26565 1
   27667    26536    26566 1
   27668    26537    26538 1
   27669    26537    26567 1
   27670    26537    26568 1
   27671    26538    26569 1
   27672    26538    26570 1
   27673    26538    26571 1
   27674    26572    26573 1
   27675    26572    26588 1
   27676    26572    26589 1
   27677    26573    26574 1
   27678    26573    26590 1
   27679    26573    26591 1
   27680    26574    26575 1
   27681    26574    26592 1
   27682    26574    26593 1
   27683    26575    26576 1
   27684    26575    26594 1
   27685    26575    26595 1
   27686    26576    26577 1
   27687    26576    26596 1
   27688    26576    26597 1
   27689    26577    26578 1
   27690    26577    26598 1
   27691    26577    26599 1
   27692    26578    26579 1
   27693    26578    26600 1
   27694    26578    26601 1
   27695    26579    26580 1
   27696    26579    26602 1
   27697    26579    26603 1
   27698    26580    26581 1
   27699    26580    26604 1
   27700    26580    26605 1
   27701    26581    26582 1
   27702    26581    26606 1
   27703    26581    26607 1
   27704    26582    26583 1
   27705    26582    26608 1
   27706    26582    26609 1
   27707    26583    26584 1
   27708    26583    26610 1
   27709    26583    26611 1
   27710    26584    26585 1
   27711    26584    26612 1
   27712    26584    26613 1
   27713    26585    26586 1
   27714    26585    26614 1
   27715    26585    26615 1
   27716    26586    26587 1
   27717    26586    26616 1
   27718    26586    26617 1
   27719    26587    26618 1
   27720    26587    26619 1
   27721    26587    26620 1
   27722    26621    26622 1
   27723    26621    26628 1
   27724    26621    26644 1
   27725    26621    26693 1
   27726    26622    26623 1
   27727    26622    26626 1
   27728    26623    26624 1
   27729    26623    26627 1
   27730    26624    26625 1
   27731    26625    26626 1
   27732    26626    26632 1
   27733    26627    26628 1
   27734    26627    26631 1
   27735    26628    26629 1
   27736    26629    26630 1
   27737    26629    26633 1
   27738    26630    26631 1
   27739    26630    26642 1
   27740    26634    26635 1
   27741    26634    26642 1
   27742    26635    26636 1
   27743    26635    26643 1
   27744    26636    26637 1
   27745    26636    26746 1
   27746    26637    26638 1
   27747    26637    26641 1
   27748    26638    26639 1
   27749    26639    26640 1
   27750    26640    26641 1
   27751    26641    26642 1
   27752    26644    26645 1
   27753    26644    26660 1
   27754    26644    26661 1
   27755    26645    26646 1
   27756    26645    26662 1
   27757    26645    26663 1
   27758    26646    26647 1
   27759    26646    26664 1
   27760    26646    26665 1
   27761    26647    26648 1
   27762    26647    26666 1
   27763    26647    26667 1
   27764    26648    26649 1
   27765    26648    26668 1
   27766    26648    26669 1
   27767    26649    26650 1
   27768    26649    26670 1
   27769    26649    26671 1
   27770    26650    26651 1
   27771    26650    26672 1
   27772    26650    26673 1
   27773    26651    26652 1
   27774    26651    26674 1
   27775    26651    26675 1
   27776    26652    26653 1
   27777    26652    26676 1
   27778    26652    26677 1
   27779    26653    26654 1
   27780    26653    26678 1
   27781    26653    26679 1
   27782    26654    26655 1
   27783    26654    26680 1
   27784    26654    26681 1
   27785    26655    26656 1
   27786    26655    26682 1
   27787    26655    26683 1
   27788    26656    26657 1
   27789    26656    26684 1
   27790    26656    26685 1
   27791    26657    26658 1
   27792    26657    26686 1
   27793    26657    26687 1
   27794    26658    26659 1
   27795    26658    26688 1
   27796    26658    26689 1
   27797    26659    26690 1
   27798    26659    26691 1
   27799    26659    26692 1
   27800    26693    26694 1
   27801    26693    26709 1
   27802    26693    26710 1
   27803    26694    26695 1
   27804    26694    26711 1
   27805    26694    26712 1
   27806    26695    26696 1
   27807    26695    26713 1
   27808    26695    26714 1
   27809    26696    26697 1
   27810    26696    26715 1
   27811    26696    26716 1
   27812    26697    26698 1
   27813    26697    26717 1
   27814    26697    26718 1
   27815    26698    26699 1
   27816    26698    26719 1
   27817    26698    26720 1
   27818    26699    26700 1
   27819    26699    26721 1
   27820    26699    26722 1
   27821    26700    26701 1
   27822    26700    26723 1
   27823    26700    26724 1
   27824    26701    26702 1
   27825    26701    26725 1
   27826    26701    26726 1
   27827    26702    26703 1
   27828    26702    26727 1
   27829    26702    26728 1
   27830    26703    26704 1
   27831    26703    26729 1
   27832    26703    26730 1
   27833    26704    26705 1
   27834    26704    26731 1
   27835    26704    26732 1
   27836    26705    26706 1
   27837    26705    26733 1
   27838    26705    26734 1
   27839    26706    26707 1
   27840    26706    26735 1
   27841    26706    26736 1
   27842    26707    26708 1
   27843    26707    26737 1
   27844    26707    26738 1
   27845    26708    26739 1
   27846    26708    26740 1
   27847    26708    26741 1
   27848    26742    26743 1
   27849    26742    26749 1
   27850    26742    26765 1
   27851    26742    26814 1
   27852    26743    26744 1
   27853    26743    26747 1
   27854    26744    26745 1
   27855    26744    26748 1
   27856    26745    26746 1
   27857    26746    26747 1
   27858    26747    26753 1
   27859    26748    26749 1
   27860    26748    26752 1
   27861    26749    26750 1
   27862    26750    26751 1
   27863    26750    26754 1
   27864    26751    26752 1
   27865    26751    26763 1
   27866    26755    26756 1
   27867    26755    26763 1
   27868    26756    26757 1
   27869    26756    26764 1
   27870    26757    26758 1
   27871    26757    26867 1
   27872    26758    26759 1
   27873    26758    26762 1
   27874    26759    26760 1
   27875    26760    26761 1
   27876    26761    26762 1
   27877    26762    26763 1
   27878    26765    26766 1
   27879    26765    26781 1
   27880    26765    26782 1
   27881    26766    26767 1
   27882    26766    26783 1
   27883    26766    26784 1
   27884    26767    26768 1
   27885    26767    26785 1
   27886    26767    26786 1
   27887    26768    26769 1
   27888    26768    26787 1
   27889    26768    26788 1
   27890    26769    26770 1
   27891    26769    26789 1
   27892    26769    26790 1
   27893    26770    26771 1
   27894    26770    26791 1
   27895    26770    26792 1
   27896    26771    26772 1
   27897    26771    26793 1
   27898    26771    26794 1
   27899    26772    26773 1
   27900    26772    26795 1
   27901    26772    26796 1
   27902    26773    26774 1
   27903    26773    26797 1
   27904    26773    26798 1
   27905    26774    26775 1
   27906    26774    26799 1
   27907    26774    26800 1
   27908    26775    26776 1
   27909    26775    26801 1
   27910    26775    26802 1
   27911    26776    26777 1
   27912    26776    26803 1
   27913    26776    26804 1
   27914    26777    26778 1
   27915    26777    26805 1
   27916    26777    26806 1
   27917    26778    26779 1
   27918    26778    26807 1
   27919    26778    26808 1
   27920    26779    26780 1
   27921    26779    26809 1
   27922    26779    26810 1
   27923    26780    26811 1
   27924    26780    26812 1
   27925    26780    26813 1
   27926    26814    26815 1
   27927    26814    26830 1
   27928    26814    26831 1
   27929    26815    26816 1
   27930    26815    26832 1
   27931    26815    26833 1
   27932    26816    26817 1
   27933    26816    26834 1
   27934    26816    26835 1
   27935    26817    26818 1
   27936    26817    26836 1
   27937    26817    26837 1
   27938    26818    26819 1
   27939    26818    26838 1
   27940    26818    26839 1
   27941    26819    26820 1
   27942    26819    26840 1
   27943    26819    26841 1
   27944    26820    26821 1
   27945    26820    26842 1
   27946    26820    26843 1
   27947    26821    26822 1
   27948    26821    26844 1
   27949    26821    26845 1
   27950    26822    26823 1
   27951    26822    26846 1
   27952    26822    26847 1
   27953    26823    26824 1
   27954    26823    26848 1
   27955    26823    26849 1
   27956    26824    26825 1
   27957    26824    26850 1
   27958    26824    26851 1
   27959    26825    26826 1
   27960    26825    26852 1
   27961    26825    26853 1
   27962    26826    26827 1
   27963    26826    26854 1
   27964    26826    26855 1
   27965    26827    26828 1
   27966    26827    26856 1
   27967    26827    26857 1
   27968    26828    26829 1
   27969    26828    26858 1
   27970    26828    26859 1
   27971    26829    26860 1
   27972    26829    26861 1
   27973    26829    26862 1
   27974    26863    26864 1
   27975    26863    26870 1
   27976    26863    26886 1
   27977    26863    26935 1
   27978    26864    26865 1
   27979    26864    26868 1
   27980    26865    26866 1
   27981    26865    26869 1
   27982    26866    26867 1
   27983    26867    26868 1
   27984    26868    26874 1
   27985    26869    26870 1
   27986    26869    26873 1
   27987    26870    26871 1
   27988    26871    26872 1
   27989    26871    26875 1
   27990    26872    26873 1
   27991    26872    26884 1
   27992    26876    26877 1
   27993    26876    26884 1
   27994    26877    26878 1
   27995    26877    26885 1
   27996    26878    26879 1
   27997    26878    26988 1
   27998    26879    26880 1
   27999    26879    26883 1
   28000    26880    26881 1
   28001    26881    26882 1
   28002    26882    26883 1
   28003    26883    26884 1
   28004    26886    26887 1
   28005    26886    26902 1
   28006    26886    26903 1
   28007    26887    26888 1
   28008    26887    26904 1
   28009    26887    26905 1
   28010    26888    26889 1
   28011    26888    26906 1
   28012    26888    26907 1
   28013    26889    26890 1
   28014    26889    26908 1
   28015    26889    26909 1
   28016    26890    26891 1
   28017    26890    26910 1
   28018    26890    26911 1
   28019    26891    26892 1
   28020    26891    26912 1
   28021    26891    26913 1
   28022    26892    26893 1
   28023    26892    26914 1
   28024    26892    26915 1
   28025    26893    26894 1
   28026    26893    26916 1
   28027    26893    26917 1
   28028    26894    26895 1
   28029    26894    26918 1
   28030    26894    26919 1
   28031    26895    26896 1
   28032    26895    26920 1
   28033    26895    26921 1
   28034    26896    26897 1
   28035    26896    26922 1
   28036    26896    26923 1
   28037    26897    26898 1
   28038    26897    26924 1
   28039    26897    26925 1
   28040    26898    26899 1
   28041    26898    26926 1
   28042    26898    26927 1
   28043    26899    26900 1
   28044    26899    26928 1
   28045    26899    26929 1
   28046    26900    26901 1
   28047    26900    26930 1
   28048    26900    26931 1
   28049    26901    26932 1
   28050    26901    26933 1
   28051    26901    26934 1
   28052    26935    26936 1
   28053    26935    26951 1
   28054    26935    26952 1
   28055    26936    26937 1
   28056    26936    26953 1
   28057    26936    26954 1
   28058    26937    26938 1
   28059    26937    26955 1
   28060    26937    26956 1
   28061    26938    26939 1
   28062    26938    26957 1
   28063    26938    26958 1
   28064    26939    26940 1
   28065    26939    26959 1
   28066    26939    26960 1
   28067    26940    26941 1
   28068    26940    26961 1
   28069    26940    26962 1
   28070    26941    26942 1
   28071    26941    26963 1
   28072    26941    26964 1
   28073    26942    26943 1
   28074    26942    26965 1
   28075    26942    26966 1
   28076    26943    26944 1
   28077    26943    26967 1
   28078    26943    26968 1
   28079    26944    26945 1
   28080    26944    26969 1
   28081    26944    26970 1
   28082    26945    26946 1
   28083    26945    26971 1
   28084    26945    26972 1
   28085    26946    26947 1
   28086    26946    26973 1
   28087    26946    26974 1
   28088    26947    26948 1
   28089    26947    26975 1
   28090    26947    26976 1
   28091    26948    26949 1
   28092    26948    26977 1
   28093    26948    26978 1
   28094    26949    26950 1
   28095    26949    26979 1
   28096    26949    26980 1
   28097    26950    26981 1
   28098    26950    26982 1
   28099    26950    26983 1
   28100    26984    26985 1
   28101    26984    26991 1
   28102    26984    27007 1
   28103    26984    27056 1
   28104    26985    26986 1
   28105    26985    26989 1
   28106    26986    26987 1
   28107    26986    26990 1
   28108    26987    26988 1
   28109    26988    26989 1
   28110    26989    26995 1
   28111    26990    26991 1
   28112    26990    26994 1
   28113    26991    26992 1
   28114    26992    26993 1
   28115    26992    26996 1
   28116    26993    26994 1
   28117    26993    27005 1
   28118    26997    26998 1
   28119    26997    27005 1
   28120    26998    26999 1
   28121    26998    27006 1
   28122    26999    27000 1
   28123    26999    27109 1
   28124    27000    27001 1
   28125    27000    27004 1
   28126    27001    27002 1
   28127    27002    27003 1
   28128    27003    27004 1
   28129    27004    27005 1
   28130    27007    27008 1
   28131    27007    27023 1
   28132    27007    27024 1
   28133    27008    27009 1
   28134    27008    27025 1
   28135    27008    27026 1
   28136    27009    27010 1
   28137    27009    27027 1
   28138    27009    27028 1
   28139    27010    27011 1
   28140    27010    27029 1
   28141    27010    27030 1
   28142    27011    27012 1
   28143    27011    27031 1
   28144    27011    27032 1
   28145    27012    27013 1
   28146    27012    27033 1
   28147    27012    27034 1
   28148    27013    27014 1
   28149    27013    27035 1
   28150    27013    27036 1
   28151    27014    27015 1
   28152    27014    27037 1
   28153    27014    27038 1
   28154    27015    27016 1
   28155    27015    27039 1
   28156    27015    27040 1
   28157    27016    27017 1
   28158    27016    27041 1
   28159    27016    27042 1
   28160    27017    27018 1
   28161    27017    27043 1
   28162    27017    27044 1
   28163    27018    27019 1
   28164    27018    27045 1
   28165    27018    27046 1
   28166    27019    27020 1
   28167    27019    27047 1
   28168    27019    27048 1
   28169    27020    27021 1
   28170    27020    27049 1
   28171    27020    27050 1
   28172    27021    27022 1
   28173    27021    27051 1
   28174    27021    27052 1
   28175    27022    27053 1
   28176    27022    27054 1
   28177    27022    27055 1
   28178    27056    27057 1
   28179    27056    27072 1
   28180    27056    27073 1
   28181    27057    27058 1
   28182    27057    27074 1
   28183    27057    27075 1
   28184    27058    27059 1
   28185    27058    27076 1
   28186    27058    27077 1
   28187    27059    27060 1
   28188    27059    27078 1
   28189    27059    27079 1
   28190    27060    27061 1
   28191    27060    27080 1
   28192    27060    27081 1
   28193    27061    27062 1
   28194    27061    27082 1
   28195    27061    27083 1
   28196    27062    27063 1
   28197    27062    27084 1
   28198    27062    27085 1
   28199    27063    27064 1
   28200    27063    27086 1
   28201    27063    27087 1
   28202    27064    27065 1
   28203    27064    27088 1
   28204    27064    27089 1
   28205    27065    27066 1
   28206    27065    27090 1
   28207    27065    27091 1
   28208    27066    27067 1
   28209    27066    27092 1
   28210    27066    27093 1
   28211    27067    27068 1
   28212    27067    27094 1
   28213    27067    27095 1
   28214    27068    27069 1
   28215    27068    27096 1
   28216    27068    27097 1
   28217    27069    27070 1
   28218    27069    27098 1
   28219    27069    27099 1
   28220    27070    27071 1
   28221    27070    27100 1
   28222    27070    27101 1
   28223    27071    27102 1
   28224    27071    27103 1
   28225    27071    27104 1
   28226    27105    27106 1
   28227    27105    27112 1
   28228    27105    27128 1
   28229    27105    27177 1
   28230    27106    27107 1
   28231    27106    27110 1
   28232    27107    27108 1
   28233    27107    27111 1
   28234    27108    27109 1
   28235    27109    27110 1
   28236    27110    27116 1
   28237    27111    27112 1
   28238    27111    27115 1
   28239    27112    27113 1
   28240    27113    27114 1
   28241    27113    27117 1
   28242    27114    27115 1
   28243    27114    27126 1
   28244    27118    27119 1
   28245    27118    27126 1
   28246    27119    27120 1
   28247    27119    27127 1
   28248    27120    27121 1
   28249    27120    27230 1
   28250    27121    27122 1
   28251    27121    27125 1
   28252    27122    27123 1
   28253    27123    27124 1
   28254    27124    27125 1
   28255    27125    27126 1
   28256    27128    27129 1
   28257    27128    27144 1
   28258    27128    27145 1
   28259    27129    27130 1
   28260    27129    27146 1
   28261    27129    27147 1
   28262    27130    27131 1
   28263    27130    27148 1
   28264    27130    27149 1
   28265    27131    27132 1
   28266    27131    27150 1
   28267    27131    27151 1
   28268    27132    27133 1
   28269    27132    27152 1
   28270    27132    27153 1
   28271    27133    27134 1
   28272    27133    27154 1
   28273    27133    27155 1
   28274    27134    27135 1
   28275    27134    27156 1
   28276    27134    27157 1
   28277    27135    27136 1
   28278    27135    27158 1
   28279    27135    27159 1
   28280    27136    27137 1
   28281    27136    27160 1
   28282    27136    27161 1
   28283    27137    27138 1
   28284    27137    27162 1
   28285    27137    27163 1
   28286    27138    27139 1
   28287    27138    27164 1
   28288    27138    27165 1
   28289    27139    27140 1
   28290    27139    27166 1
   28291    27139    27167 1
   28292    27140    27141 1
   28293    27140    27168 1
   28294    27140    27169 1
   28295    27141    27142 1
   28296    27141    27170 1
   28297    27141    27171 1
   28298    27142    27143 1
   28299    27142    27172 1
   28300    27142    27173 1
   28301    27143    27174 1
   28302    27143    27175 1
   28303    27143    27176 1
   28304    27177    27178 1
   28305    27177    27193 1
   28306    27177    27194 1
   28307    27178    27179 1
   28308    27178    27195 1
   28309    27178    27196 1
   28310    27179    27180 1
   28311    27179    27197 1
   28312    27179    27198 1
   28313    27180    27181 1
   28314    27180    27199 1
   28315    27180    27200 1
   28316    27181    27182 1
   28317    27181    27201 1
   28318    27181    27202 1
   28319    27182    27183 1
   28320    27182    27203 1
   28321    27182    27204 1
   28322    27183    27184 1
   28323    27183    27205 1
   28324    27183    27206 1
   28325    27184    27185 1
   28326    27184    27207 1
   28327    27184    27208 1
   28328    27185    27186 1
   28329    27185    27209 1
   28330    27185    27210 1
   28331    27186    27187 1
   28332    27186    27211 1
   28333    27186    27212 1
   28334    27187    27188 1
   28335    27187    27213 1
   28336    27187    27214 1
   28337    27188    27189 1
   28338    27188    27215 1
   28339    27188    27216 1
   28340    27189    27190 1
   28341    27189    27217 1
   28342    27189    27218 1
   28343    27190    27191 1
   28344    27190    27219 1
   28345    27190    27220 1
   28346    27191    27192 1
   28347    27191    27221 1
   28348    27191    27222 1
   28349    27192    27223 1
   28350    27192    27224 1
   28351    27192    27225 1
   28352    27226    27227 1
   28353    27226    27233 1
   28354    27226    27249 1
   28355    27226    27298 1
   28356    27227    27228 1
   28357    27227    27231 1
   28358    27228    27229 1
   28359    27228    27232 1
   28360    27229    27230 1
   28361    27230    27231 1
   28362    27231    27237 1
   28363    27232    27233 1
   28364    27232    27236 1
   28365    27233    27234 1
   28366    27234    27235 1
   28367    27234    27238 1
   28368    27235    27236 1
   28369    27235    27247 1
   28370    27239    27240 1
   28371    27239    27247 1
   28372    27240    27241 1
   28373    27240    27248 1
   28374    27241    27242 1
   28375    27241    27351 1
   28376    27242    27243 1
   28377    27242    27246 1
   28378    27243    27244 1
   28379    27244    27245 1
   28380    27245    27246 1
   28381    27246    27247 1
   28382    27249    27250 1
   28383    27249    27265 1
   28384    27249    27266 1
   28385    27250    27251 1
   28386    27250    27267 1
   28387    27250    27268 1
   28388    27251    27252 1
   28389    27251    27269 1
   28390    27251    27270 1
   28391    27252    27253 1
   28392    27252    27271 1
   28393    27252    27272 1
   28394    27253    27254 1
   28395    27253    27273 1
   28396    27253    27274 1
   28397    27254    27255 1
   28398    27254    27275 1
   28399    27254    27276 1
   28400    27255    27256 1
   28401    27255    27277 1
   28402    27255    27278 1
   28403    27256    27257 1
   28404    27256    27279 1
   28405    27256    27280 1
   28406    27257    27258 1
   28407    27257    27281 1
   28408    27257    27282 1
   28409    27258    27259 1
   28410    27258    27283 1
   28411    27258    27284 1
   28412    27259    27260 1
   28413    27259    27285 1
   28414    27259    27286 1
   28415    27260    27261 1
   28416    27260    27287 1
   28417    27260    27288 1
   28418    27261    27262 1
   28419    27261    27289 1
   28420    27261    27290 1
   28421    27262    27263 1
   28422    27262    27291 1
   28423    27262    27292 1
   28424    27263    27264 1
   28425    27263    27293 1
   28426    27263    27294 1
   28427    27264    27295 1
   28428    27264    27296 1
   28429    27264    27297 1
   28430    27298    27299 1
   28431    27298    27314 1
   28432    27298    27315 1
   28433    27299    27300 1
   28434    27299    27316 1
   28435    27299    27317 1
   28436    27300    27301 1
   28437    27300    27318 1
   28438    27300    27319 1
   28439    27301    27302 1
   28440    27301    27320 1
   28441    27301    27321 1
   28442    27302    27303 1
   28443    27302    27322 1
   28444    27302    27323 1
   28445    27303    27304 1
   28446    27303    27324 1
   28447    27303    27325 1
   28448    27304    27305 1
   28449    27304    27326 1
   28450    27304    27327 1
   28451    27305    27306 1
   28452    27305    27328 1
   28453    27305    27329 1
   28454    27306    27307 1
   28455    27306    27330 1
   28456    27306    27331 1
   28457    27307    27308 1
   28458    27307    27332 1
   28459    27307    27333 1
   28460    27308    27309 1
   28461    27308    27334 1
   28462    27308    27335 1
   28463    27309    27310 1
   28464    27309    27336 1
   28465    27309    27337 1
   28466    27310    27311 1
   28467    27310    27338 1
   28468    27310    27339 1
   28469    27311    27312 1
   28470    27311    27340 1
   28471    27311    27341 1
   28472    27312    27313 1
   28473    27312    27342 1
   28474    27312    27343 1
   28475    27313    27344 1
   28476    27313    27345 1
   28477    27313    27346 1
   28478    27347    27348 1
   28479    27347    27354 1
   28480    27347    27370 1
   28481    27347    27419 1
   28482    27348    27349 1
   28483    27348    27352 1
   28484    27349    27350 1
   28485    27349    27353 1
   28486    27350    27351 1
   28487    27351    27352 1
   28488    27352    27358 1
   28489    27353    27354 1
   28490    27353    27357 1
   28491    27354    27355 1
   28492    27355    27356 1
   28493    27355    27359 1
   28494    27356    27357 1
   28495    27356    27368 1
   28496    27360    27361 1
   28497    27360    27368 1
   28498    27361    27362 1
   28499    27361    27369 1
   28500    27362    27363 1
   28501    27362    27472 1
   28502    27363    27364 1
   28503    27363    27367 1
   28504    27364    27365 1
   28505    27365    27366 1
   28506    27366    27367 1
   28507    27367    27368 1
   28508    27370    27371 1
   28509    27370    27386 1
   28510    27370    27387 1
   28511    27371    27372 1
   28512    27371    27388 1
   28513    27371    27389 1
   28514    27372    27373 1
   28515    27372    27390 1
   28516    27372    27391 1
   28517    27373    27374 1
   28518    27373    27392 1
   28519    27373    27393 1
   28520    27374    27375 1
   28521    27374    27394 1
   28522    27374    27395 1
   28523    27375    27376 1
   28524    27375    27396 1
   28525    27375    27397 1
   28526    27376    27377 1
   28527    27376    27398 1
   28528    27376    27399 1
   28529    27377    27378 1
   28530    27377    27400 1
   28531    27377    27401 1
   28532    27378    27379 1
   28533    27378    27402 1
   28534    27378    27403 1
   28535    27379    27380 1
   28536    27379    27404 1
   28537    27379    27405 1
   28538    27380    27381 1
   28539    27380    27406 1
   28540    27380    27407 1
   28541    27381    27382 1
   28542    27381    27408 1
   28543    27381    27409 1
   28544    27382    27383 1
   28545    27382    27410 1
   28546    27382    27411 1
   28547    27383    27384 1
   28548    27383    27412 1
   28549    27383    27413 1
   28550    27384    27385 1
   28551    27384    27414 1
   28552    27384    27415 1
   28553    27385    27416 1
   28554    27385    27417 1
   28555    27385    27418 1
   28556    27419    27420 1
   28557    27419    27435 1
   28558    27419    27436 1
   28559    27420    27421 1
   28560    27420    27437 1
   28561    27420    27438 1
   28562    27421    27422 1
   28563    27421    27439 1
   28564    27421    27440 1
   28565    27422    27423 1
   28566    27422    27441 1
   28567    27422    27442 1
   28568    27423    27424 1
   28569    27423    27443 1
   28570    27423    27444 1
   28571    27424    27425 1
   28572    27424    27445 1
   28573    27424    27446 1
   28574    27425    27426 1
   28575    27425    27447 1
   28576    27425    27448 1
   28577    27426    27427 1
   28578    27426    27449 1
   28579    27426    27450 1
   28580    27427    27428 1
   28581    27427    27451 1
   28582    27427    27452 1
   28583    27428    27429 1
   28584    27428    27453 1
   28585    27428    27454 1
   28586    27429    27430 1
   28587    27429    27455 1
   28588    27429    27456 1
   28589    27430    27431 1
   28590    27430    27457 1
   28591    27430    27458 1
   28592    27431    27432 1
   28593    27431    27459 1
   28594    27431    27460 1
   28595    27432    27433 1
   28596    27432    27461 1
   28597    27432    27462 1
   28598    27433    27434 1
   28599    27433    27463 1
   28600    27433    27464 1
   28601    27434    27465 1
   28602    27434    27466 1
   28603    27434    27467 1
   28604    27468    27469 1
   28605    27468    27475 1
   28606    27468    27491 1
   28607    27468    27540 1
   28608    27469    27470 1
   28609    27469    27473 1
   28610    27470    27471 1
   28611    27470    27474 1
   28612    27471    27472 1
   28613    27472    27473 1
   28614    27473    27479 1
   28615    27474    27475 1
   28616    27474    27478 1
   28617    27475    27476 1
   28618    27476    27477 1
   28619    27476    27480 1
   28620    27477    27478 1
   28621    27477    27489 1
   28622    27481    27482 1
   28623    27481    27489 1
   28624    27482    27483 1
   28625    27482    27490 1
   28626    27483    27484 1
   28627    27483    27593 1
   28628    27484    27485 1
   28629    27484    27488 1
   28630    27485    27486 1
   28631    27486    27487 1
   28632    27487    27488 1
   28633    27488    27489 1
   28634    27491    27492 1
   28635    27491    27507 1
   28636    27491    27508 1
   28637    27492    27493 1
   28638    27492    27509 1
   28639    27492    27510 1
   28640    27493    27494 1
   28641    27493    27511 1
   28642    27493    27512 1
   28643    27494    27495 1
   28644    27494    27513 1
   28645    27494    27514 1
   28646    27495    27496 1
   28647    27495    27515 1
   28648    27495    27516 1
   28649    27496    27497 1
   28650    27496    27517 1
   28651    27496    27518 1
   28652    27497    27498 1
   28653    27497    27519 1
   28654    27497    27520 1
   28655    27498    27499 1
   28656    27498    27521 1
   28657    27498    27522 1
   28658    27499    27500 1
   28659    27499    27523 1
   28660    27499    27524 1
   28661    27500    27501 1
   28662    27500    27525 1
   28663    27500    27526 1
   28664    27501    27502 1
   28665    27501    27527 1
   28666    27501    27528 1
   28667    27502    27503 1
   28668    27502    27529 1
   28669    27502    27530 1
   28670    27503    27504 1
   28671    27503    27531 1
   28672    27503    27532 1
   28673    27504    27505 1
   28674    27504    27533 1
   28675    27504    27534 1
   28676    27505    27506 1
   28677    27505    27535 1
   28678    27505    27536 1
   28679    27506    27537 1
   28680    27506    27538 1
   28681    27506    27539 1
   28682    27540    27541 1
   28683    27540    27556 1
   28684    27540    27557 1
   28685    27541    27542 1
   28686    27541    27558 1
   28687    27541    27559 1
   28688    27542    27543 1
   28689    27542    27560 1
   28690    27542    27561 1
   28691    27543    27544 1
   28692    27543    27562 1
   28693    27543    27563 1
   28694    27544    27545 1
   28695    27544    27564 1
   28696    27544    27565 1
   28697    27545    27546 1
   28698    27545    27566 1
   28699    27545    27567 1
   28700    27546    27547 1
   28701    27546    27568 1
   28702    27546    27569 1
   28703    27547    27548 1
   28704    27547    27570 1
   28705    27547    27571 1
   28706    27548    27549 1
   28707    27548    27572 1
   28708    27548    27573 1
   28709    27549    27550 1
   28710    27549    27574 1
   28711    27549    27575 1
   28712    27550    27551 1
   28713    27550    27576 1
   28714    27550    27577 1
   28715    27551    27552 1
   28716    27551    27578 1
   28717    27551    27579 1
   28718    27552    27553 1
   28719    27552    27580 1
   28720    27552    27581 1
   28721    27553    27554 1
   28722    27553    27582 1
   28723    27553    27583 1
   28724    27554    27555 1
   28725    27554    27584 1
   28726    27554    27585 1
   28727    27555    27586 1
   28728    27555    27587 1
   28729    27555    27588 1
   28730    27589    27590 1
   28731    27589    27596 1
   28732    27589    27612 1
   28733    27589    27661 1
   28734    27590    27591 1
   28735    27590    27594 1
   28736    27591    27592 1
   28737    27591    27595 1
   28738    27592    27593 1
   28739    27593    27594 1
   28740    27594    27600 1
   28741    27595    27596 1
   28742    27595    27599 1
   28743    27596    27597 1
   28744    27597    27598 1
   28745    27597    27601 1
   28746    27598    27599 1
   28747    27598    27610 1
   28748    27602    27603 1
   28749    27602    27610 1
   28750    27603    27604 1
   28751    27603    27611 1
   28752    27604    27605 1
   28753    27604    27714 1
   28754    27605    27606 1
   28755    27605    27609 1
   28756    27606    27607 1
   28757    27607    27608 1
   28758    27608    27609 1
   28759    27609    27610 1
   28760    27612    27613 1
   28761    27612    27628 1
   28762    27612    27629 1
   28763    27613    27614 1
   28764    27613    27630 1
   28765    27613    27631 1
   28766    27614    27615 1
   28767    27614    27632 1
   28768    27614    27633 1
   28769    27615    27616 1
   28770    27615    27634 1
   28771    27615    27635 1
   28772    27616    27617 1
   28773    27616    27636 1
   28774    27616    27637 1
   28775    27617    27618 1
   28776    27617    27638 1
   28777    27617    27639 1
   28778    27618    27619 1
   28779    27618    27640 1
   28780    27618    27641 1
   28781    27619    27620 1
   28782    27619    27642 1
   28783    27619    27643 1
   28784    27620    27621 1
   28785    27620    27644 1
   28786    27620    27645 1
   28787    27621    27622 1
   28788    27621    27646 1
   28789    27621    27647 1
   28790    27622    27623 1
   28791    27622    27648 1
   28792    27622    27649 1
   28793    27623    27624 1
   28794    27623    27650 1
   28795    27623    27651 1
   28796    27624    27625 1
   28797    27624    27652 1
   28798    27624    27653 1
   28799    27625    27626 1
   28800    27625    27654 1
   28801    27625    27655 1
   28802    27626    27627 1
   28803    27626    27656 1
   28804    27626    27657 1
   28805    27627    27658 1
   28806    27627    27659 1
   28807    27627    27660 1
   28808    27661    27662 1
   28809    27661    27677 1
   28810    27661    27678 1
   28811    27662    27663 1
   28812    27662    27679 1
   28813    27662    27680 1
   28814    27663    27664 1
   28815    27663    27681 1
   28816    27663    27682 1
   28817    27664    27665 1
   28818    27664    27683 1
   28819    27664    27684 1
   28820    27665    27666 1
   28821    27665    27685 1
   28822    27665    27686 1
   28823    27666    27667 1
   28824    27666    27687 1
   28825    27666    27688 1
   28826    27667    27668 1
   28827    27667    27689 1
   28828    27667    27690 1
   28829    27668    27669 1
   28830    27668    27691 1
   28831    27668    27692 1
   28832    27669    27670 1
   28833    27669    27693 1
   28834    27669    27694 1
   28835    27670    27671 1
   28836    27670    27695 1
   28837    27670    27696 1
   28838    27671    27672 1
   28839    27671    27697 1
   28840    27671    27698 1
   28841    27672    27673 1
   28842    27672    27699 1
   28843    27672    27700 1
   28844    27673    27674 1
   28845    27673    27701 1
   28846    27673    27702 1
   28847    27674    27675 1
   28848    27674    27703 1
   28849    27674    27704 1
   28850    27675    27676 1
   28851    27675    27705 1
   28852    27675    27706 1
   28853    27676    27707 1
   28854    27676    27708 1
   28855    27676    27709 1
   28856    27710    27711 1
   28857    27710    27717 1
   28858    27710    27733 1
   28859    27710    27782 1
   28860    27711    27712 1
   28861    27711    27715 1
   28862    27712    27713 1
   28863    27712    27716 1
   28864    27713    27714 1
   28865    27714    27715 1
   28866    27715    27721 1
   28867    27716    27717 1
   28868    27716    27720 1
   28869    27717    27718 1
   28870    27718    27719 1
   28871    27718    27722 1
   28872    27719    27720 1
   28873    27719    27731 1
   28874    27723    27724 1
   28875    27723    27731 1
   28876    27724    27725 1
   28877    27724    27732 1
   28878    27725    27726 1
   28879    27725    27835 1
   28880    27726    27727 1
   28881    27726    27730 1
   28882    27727    27728 1
   28883    27728    27729 1
   28884    27729    27730 1
   28885    27730    27731 1
   28886    27733    27734 1
   28887    27733    27749 1
   28888    27733    27750 1
   28889    27734    27735 1
   28890    27734    27751 1
   28891    27734    27752 1
   28892    27735    27736 1
   28893    27735    27753 1
   28894    27735    27754 1
   28895    27736    27737 1
   28896    27736    27755 1
   28897    27736    27756 1
   28898    27737    27738 1
   28899    27737    27757 1
   28900    27737    27758 1
   28901    27738    27739 1
   28902    27738    27759 1
   28903    27738    27760 1
   28904    27739    27740 1
   28905    27739    27761 1
   28906    27739    27762 1
   28907    27740    27741 1
   28908    27740    27763 1
   28909    27740    27764 1
   28910    27741    27742 1
   28911    27741    27765 1
   28912    27741    27766 1
   28913    27742    27743 1
   28914    27742    27767 1
   28915    27742    27768 1
   28916    27743    27744 1
   28917    27743    27769 1
   28918    27743    27770 1
   28919    27744    27745 1
   28920    27744    27771 1
   28921    27744    27772 1
   28922    27745    27746 1
   28923    27745    27773 1
   28924    27745    27774 1
   28925    27746    27747 1
   28926    27746    27775 1
   28927    27746    27776 1
   28928    27747    27748 1
   28929    27747    27777 1
   28930    27747    27778 1
   28931    27748    27779 1
   28932    27748    27780 1
   28933    27748    27781 1
   28934    27782    27783 1
   28935    27782    27798 1
   28936    27782    27799 1
   28937    27783    27784 1
   28938    27783    27800 1
   28939    27783    27801 1
   28940    27784    27785 1
   28941    27784    27802 1
   28942    27784    27803 1
   28943    27785    27786 1
   28944    27785    27804 1
   28945    27785    27805 1
   28946    27786    27787 1
   28947    27786    27806 1
   28948    27786    27807 1
   28949    27787    27788 1
   28950    27787    27808 1
   28951    27787    27809 1
   28952    27788    27789 1
   28953    27788    27810 1
   28954    27788    27811 1
   28955    27789    27790 1
   28956    27789    27812 1
   28957    27789    27813 1
   28958    27790    27791 1
   28959    27790    27814 1
   28960    27790    27815 1
   28961    27791    27792 1
   28962    27791    27816 1
   28963    27791    27817 1
   28964    27792    27793 1
   28965    27792    27818 1
   28966    27792    27819 1
   28967    27793    27794 1
   28968    27793    27820 1
   28969    27793    27821 1
   28970    27794    27795 1
   28971    27794    27822 1
   28972    27794    27823 1
   28973    27795    27796 1
   28974    27795    27824 1
   28975    27795    27825 1
   28976    27796    27797 1
   28977    27796    27826 1
   28978    27796    27827 1
   28979    27797    27828 1
   28980    27797    27829 1
   28981    27797    27830 1
   28982    27831    27832 1
   28983    27831    27838 1
   28984    27831    27854 1
   28985    27831    27903 1
   28986    27832    27833 1
   28987    27832    27836 1
   28988    27833    27834 1
   28989    27833    27837 1
   28990    27834    27835 1
   28991    27835    27836 1
   28992    27836    27842 1
   28993    27837    27838 1
   28994    27837    27841 1
   28995    27838    27839 1
   28996    27839    27840 1
   28997    27839    27843 1
   28998    27840    27841 1
   28999    27840    27852 1
   29000    27844    27845 1
   29001    27844    27852 1
   29002    27845    27846 1
   29003    27845    27853 1
   29004    27846    27847 1
   29005    27846    27956 1
   29006    27847    27848 1
   29007    27847    27851 1
   29008    27848    27849 1
   29009    27849    27850 1
   29010    27850    27851 1
   29011    27851    27852 1
   29012    27854    27855 1
   29013    27854    27870 1
   29014    27854    27871 1
   29015    27855    27856 1
   29016    27855    27872 1
   29017    27855    27873 1
   29018    27856    27857 1
   29019    27856    27874 1
   29020    27856    27875 1
   29021    27857    27858 1
   29022    27857    27876 1
   29023    27857    27877 1
   29024    27858    27859 1
   29025    27858    27878 1
   29026    27858    27879 1
   29027    27859    27860 1
   29028    27859    27880 1
   29029    27859    27881 1
   29030    27860    27861 1
   29031    27860    27882 1
   29032    27860    27883 1
   29033    27861    27862 1
   29034    27861    27884 1
   29035    27861    27885 1
   29036    27862    27863 1
   29037    27862    27886 1
   29038    27862    27887 1
   29039    27863    27864 1
   29040    27863    27888 1
   29041    27863    27889 1
   29042    27864    27865 1
   29043    27864    27890 1
   29044    27864    27891 1
   29045    27865    27866 1
   29046    27865    27892 1
   29047    27865    27893 1
   29048    27866    27867 1
   29049    27866    27894 1
   29050    27866    27895 1
   29051    27867    27868 1
   29052    27867    27896 1
   29053    27867    27897 1
   29054    27868    27869 1
   29055    27868    27898 1
   29056    27868    27899 1
   29057    27869    27900 1
   29058    27869    27901 1
   29059    27869    27902 1
   29060    27903    27904 1
   29061    27903    27919 1
   29062    27903    27920 1
   29063    27904    27905 1
   29064    27904    27921 1
   29065    27904    27922 1
   29066    27905    27906 1
   29067    27905    27923 1
   29068    27905    27924 1
   29069    27906    27907 1
   29070    27906    27925 1
   29071    27906    27926 1
   29072    27907    27908 1
   29073    27907    27927 1
   29074    27907    27928 1
   29075    27908    27909 1
   29076    27908    27929 1
   29077    27908    27930 1
   29078    27909    27910 1
   29079    27909    27931 1
   29080    27909    27932 1
   29081    27910    27911 1
   29082    27910    27933 1
   29083    27910    27934 1
   29084    27911    27912 1
   29085    27911    27935 1
   29086    27911    27936 1
   29087    27912    27913 1
   29088    27912    27937 1
   29089    27912    27938 1
   29090    27913    27914 1
   29091    27913    27939 1
   29092    27913    27940 1
   29093    27914    27915 1
   29094    27914    27941 1
   29095    27914    27942 1
   29096    27915    27916 1
   29097    27915    27943 1
   29098    27915    27944 1
   29099    27916    27917 1
   29100    27916    27945 1
   29101    27916    27946 1
   29102    27917    27918 1
   29103    27917    27947 1
   29104    27917    27948 1
   29105    27918    27949 1
   29106    27918    27950 1
   29107    27918    27951 1
   29108    27952    27953 1
   29109    27952    27959 1
   29110    27952    27975 1
   29111    27952    28024 1
   29112    27953    27954 1
   29113    27953    27957 1
   29114    27954    27955 1
   29115    27954    27958 1
   29116    27955    27956 1
   29117    27956    27957 1
   29118    27957    27963 1
   29119    27958    27959 1
   29120    27958    27962 1
   29121    27959    27960 1
   29122    27960    27961 1
   29123    27960    27964 1
   29124    27961    27962 1
   29125    27961    27973 1
   29126    27965    27966 1
   29127    27965    27973 1
   29128    27966    27967 1
   29129    27966    27974 1
   29130    27967    27968 1
   29131    27967    28077 1
   29132    27968    27969 1
   29133    27968    27972 1
   29134    27969    27970 1
   29135    27970    27971 1
   29136    27971    27972 1
   29137    27972    27973 1
   29138    27975    27976 1
   29139    27975    27991 1
   29140    27975    27992 1
   29141    27976    27977 1
   29142    27976    27993 1
   29143    27976    27994 1
   29144    27977    27978 1
   29145    27977    27995 1
   29146    27977    27996 1
   29147    27978    27979 1
   29148    27978    27997 1
   29149    27978    27998 1
   29150    27979    27980 1
   29151    27979    27999 1
   29152    27979    28000 1
   29153    27980    27981 1
   29154    27980    28001 1
   29155    27980    28002 1
   29156    27981    27982 1
   29157    27981    28003 1
   29158    27981    28004 1
   29159    27982    27983 1
   29160    27982    28005 1
   29161    27982    28006 1
   29162    27983    27984 1
   29163    27983    28007 1
   29164    27983    28008 1
   29165    27984    27985 1
   29166    27984    28009 1
   29167    27984    28010 1
   29168    27985    27986 1
   29169    27985    28011 1
   29170    27985    28012 1
   29171    27986    27987 1
   29172    27986    28013 1
   29173    27986    28014 1
   29174    27987    27988 1
   29175    27987    28015 1
   29176    27987    28016 1
   29177    27988    27989 1
   29178    27988    28017 1
   29179    27988    28018 1
   29180    27989    27990 1
   29181    27989    28019 1
   29182    27989    28020 1
   29183    27990    28021 1
   29184    27990    28022 1
   29185    27990    28023 1
   29186    28024    28025 1
   29187    28024    28040 1
   29188    28024    28041 1
   29189    28025    28026 1
   29190    28025    28042 1
   29191    28025    28043 1
   29192    28026    28027 1
   29193    28026    28044 1
   29194    28026    28045 1
   29195    28027    28028 1
   29196    28027    28046 1
   29197    28027    28047 1
   29198    28028    28029 1
   29199    28028    28048 1
   29200    28028    28049 1
   29201    28029    28030 1
   29202    28029    28050 1
   29203    28029    28051 1
   29204    28030    28031 1
   29205    28030    28052 1
   29206    28030    28053 1
   29207    28031    28032 1
   29208    28031    28054 1
   29209    28031    28055 1
   29210    28032    28033 1
   29211    28032    28056 1
   29212    28032    28057 1
   29213    28033    28034 1
   29214    28033    28058 1
   29215    28033    28059 1
   29216    28034    28035 1
   29217    28034    28060 1
   29218    28034    28061 1
   29219    28035    28036 1
   29220    28035    28062 1
   29221    28035    28063 1
   29222    28036    28037 1
   29223    28036    28064 1
   29224    28036    28065 1
   29225    28037    28038 1
   29226    28037    28066 1
   29227    28037    28067 1
   29228    28038    28039 1
   29229    28038    28068 1
   29230    28038    28069 1
   29231    28039    28070 1
   29232    28039    28071 1
   29233    28039    28072 1
   29234    28073    28074 1
   29235    28073    28080 1
   29236    28073    28096 1
   29237    28073    28145 1
   29238    28074    28075 1
   29239    28074    28078 1
   29240    28075    28076 1
   29241    28075    28079 1
   29242    28076    28077 1
   29243    28077    28078 1
   29244    28078    28084 1
   29245    28079    28080 1
   29246    28079    28083 1
   29247    28080    28081 1
   29248    28081    28082 1
   29249    28081    28085 1
   29250    28082    28083 1
   29251    28082    28094 1
   29252    28086    28087 1
   29253    28086    28094 1
   29254    28087    28088 1
   29255    28087    28095 1
   29256    28088    28089 1
   29257    28088    28198 1
   29258    28089    28090 1
   29259    28089    28093 1
   29260    28090    28091 1
   29261    28091    28092 1
   29262    28092    28093 1
   29263    28093    28094 1
   29264    28096    28097 1
   29265    28096    28112 1
   29266    28096    28113 1
   29267    28097    28098 1
   29268    28097    28114 1
   29269    28097    28115 1
   29270    28098    28099 1
   29271    28098    28116 1
   29272    28098    28117 1
   29273    28099    28100 1
   29274    28099    28118 1
   29275    28099    28119 1
   29276    28100    28101 1
   29277    28100    28120 1
   29278    28100    28121 1
   29279    28101    28102 1
   29280    28101    28122 1
   29281    28101    28123 1
   29282    28102    28103 1
   29283    28102    28124 1
   29284    28102    28125 1
   29285    28103    28104 1
   29286    28103    28126 1
   29287    28103    28127 1
   29288    28104    28105 1
   29289    28104    28128 1
   29290    28104    28129 1
   29291    28105    28106 1
   29292    28105    28130 1
   29293    28105    28131 1
   29294    28106    28107 1
   29295    28106    28132 1
   29296    28106    28133 1
   29297    28107    28108 1
   29298    28107    28134 1
   29299    28107    28135 1
   29300    28108    28109 1
   29301    28108    28136 1
   29302    28108    28137 1
   29303    28109    28110 1
   29304    28109    28138 1
   29305    28109    28139 1
   29306    28110    28111 1
   29307    28110    28140 1
   29308    28110    28141 1
   29309    28111    28142 1
   29310    28111    28143 1
   29311    28111    28144 1
   29312    28145    28146 1
   29313    28145    28161 1
   29314    28145    28162 1
   29315    28146    28147 1
   29316    28146    28163 1
   29317    28146    28164 1
   29318    28147    28148 1
   29319    28147    28165 1
   29320    28147    28166 1
   29321    28148    28149 1
   29322    28148    28167 1
   29323    28148    28168 1
   29324    28149    28150 1
   29325    28149    28169 1
   29326    28149    28170 1
   29327    28150    28151 1
   29328    28150    28171 1
   29329    28150    28172 1
   29330    28151    28152 1
   29331    28151    28173 1
   29332    28151    28174 1
   29333    28152    28153 1
   29334    28152    28175 1
   29335    28152    28176 1
   29336    28153    28154 1
   29337    28153    28177 1
   29338    28153    28178 1
   29339    28154    28155 1
   29340    28154    28179 1
   29341    28154    28180 1
   29342    28155    28156 1
   29343    28155    28181 1
   29344    28155    28182 1
   29345    28156    28157 1
   29346    28156    28183 1
   29347    28156    28184 1
   29348    28157    28158 1
   29349    28157    28185 1
   29350    28157    28186 1
   29351    28158    28159 1
   29352    28158    28187 1
   29353    28158    28188 1
   29354    28159    28160 1
   29355    28159    28189 1
   29356    28159    28190 1
   29357    28160    28191 1
   29358    28160    28192 1
   29359    28160    28193 1
   29360    28194    28195 1
   29361    28194    28201 1
   29362    28194    28217 1
   29363    28194    28266 1
   29364    28195    28196 1
   29365    28195    28199 1
   29366    28196    28197 1
   29367    28196    28200 1
   29368    28197    28198 1
   29369    28198    28199 1
   29370    28199    28205 1
   29371    28200    28201 1
   29372    28200    28204 1
   29373    28201    28202 1
   29374    28202    28203 1
   29375    28202    28206 1
   29376    28203    28204 1
   29377    28203    28215 1
   29378    28207    28208 1
   29379    28207    28215 1
   29380    28208    28209 1
   29381    28208    28216 1
   29382    28209    28210 1
   29383    28209    28319 1
   29384    28210    28211 1
   29385    28210    28214 1
   29386    28211    28212 1
   29387    28212    28213 1
   29388    28213    28214 1
   29389    28214    28215 1
   29390    28217    28218 1
   29391    28217    28233 1
   29392    28217    28234 1
   29393    28218    28219 1
   29394    28218    28235 1
   29395    28218    28236 1
   29396    28219    28220 1
   29397    28219    28237 1
   29398    28219    28238 1
   29399    28220    28221 1
   29400    28220    28239 1
   29401    28220    28240 1
   29402    28221    28222 1
   29403    28221    28241 1
   29404    28221    28242 1
   29405    28222    28223 1
   29406    28222    28243 1
   29407    28222    28244 1
   29408    28223    28224 1
   29409    28223    28245 1
   29410    28223    28246 1
   29411    28224    28225 1
   29412    28224    28247 1
   29413    28224    28248 1
   29414    28225    28226 1
   29415    28225    28249 1
   29416    28225    28250 1
   29417    28226    28227 1
   29418    28226    28251 1
   29419    28226    28252 1
   29420    28227    28228 1
   29421    28227    28253 1
   29422    28227    28254 1
   29423    28228    28229 1
   29424    28228    28255 1
   29425    28228    28256 1
   29426    28229    28230 1
   29427    28229    28257 1
   29428    28229    28258 1
   29429    28230    28231 1
   29430    28230    28259 1
   29431    28230    28260 1
   29432    28231    28232 1
   29433    28231    28261 1
   29434    28231    28262 1
   29435    28232    28263 1
   29436    28232    28264 1
   29437    28232    28265 1
   29438    28266    28267 1
   29439    28266    28282 1
   29440    28266    28283 1
   29441    28267    28268 1
   29442    28267    28284 1
   29443    28267    28285 1
   29444    28268    28269 1
   29445    28268    28286 1
   29446    28268    28287 1
   29447    28269    28270 1
   29448    28269    28288 1
   29449    28269    28289 1
   29450    28270    28271 1
   29451    28270    28290 1
   29452    28270    28291 1
   29453    28271    28272 1
   29454    28271    28292 1
   29455    28271    28293 1
   29456    28272    28273 1
   29457    28272    28294 1
   29458    28272    28295 1
   29459    28273    28274 1
   29460    28273    28296 1
   29461    28273    28297 1
   29462    28274    28275 1
   29463    28274    28298 1
   29464    28274    28299 1
   29465    28275    28276 1
   29466    28275    28300 1
   29467    28275    28301 1
   29468    28276    28277 1
   29469    28276    28302 1
   29470    28276    28303 1
   29471    28277    28278 1
   29472    28277    28304 1
   29473    28277    28305 1
   29474    28278    28279 1
   29475    28278    28306 1
   29476    28278    28307 1
   29477    28279    28280 1
   29478    28279    28308 1
   29479    28279    28309 1
   29480    28280    28281 1
   29481    28280    28310 1
   29482    28280    28311 1
   29483    28281    28312 1
   29484    28281    28313 1
   29485    28281    28314 1
   29486    28315    28316 1
   29487    28315    28322 1
   29488    28315    28338 1
   29489    28315    28387 1
   29490    28316    28317 1
   29491    28316    28320 1
   29492    28317    28318 1
   29493    28317    28321 1
   29494    28318    28319 1
   29495    28319    28320 1
   29496    28320    28326 1
   29497    28321    28322 1
   29498    28321    28325 1
   29499    28322    28323 1
   29500    28323    28324 1
   29501    28323    28327 1
   29502    28324    28325 1
   29503    28324    28336 1
   29504    28328    28329 1
   29505    28328    28336 1
   29506    28329    28330 1
   29507    28329    28337 1
   29508    28330    28331 1
   29509    28330    28440 1
   29510    28331    28332 1
   29511    28331    28335 1
   29512    28332    28333 1
   29513    28333    28334 1
   29514    28334    28335 1
   29515    28335    28336 1
   29516    28338    28339 1
   29517    28338    28354 1
   29518    28338    28355 1
   29519    28339    28340 1
   29520    28339    28356 1
   29521    28339    28357 1
   29522    28340    28341 1
   29523    28340    28358 1
   29524    28340    28359 1
   29525    28341    28342 1
   29526    28341    28360 1
   29527    28341    28361 1
   29528    28342    28343 1
   29529    28342    28362 1
   29530    28342    28363 1
   29531    28343    28344 1
   29532    28343    28364 1
   29533    28343    28365 1
   29534    28344    28345 1
   29535    28344    28366 1
   29536    28344    28367 1
   29537    28345    28346 1
   29538    28345    28368 1
   29539    28345    28369 1
   29540    28346    28347 1
   29541    28346    28370 1
   29542    28346    28371 1
   29543    28347    28348 1
   29544    28347    28372 1
   29545    28347    28373 1
   29546    28348    28349 1
   29547    28348    28374 1
   29548    28348    28375 1
   29549    28349    28350 1
   29550    28349    28376 1
   29551    28349    28377 1
   29552    28350    28351 1
   29553    28350    28378 1
   29554    28350    28379 1
   29555    28351    28352 1
   29556    28351    28380 1
   29557    28351    28381 1
   29558    28352    28353 1
   29559    28352    28382 1
   29560    28352    28383 1
   29561    28353    28384 1
   29562    28353    28385 1
   29563    28353    28386 1
   29564    28387    28388 1
   29565    28387    28403 1
   29566    28387    28404 1
   29567    28388    28389 1
   29568    28388    28405 1
   29569    28388    28406 1
   29570    28389    28390 1
   29571    28389    28407 1
   29572    28389    28408 1
   29573    28390    28391 1
   29574    28390    28409 1
   29575    28390    28410 1
   29576    28391    28392 1
   29577    28391    28411 1
   29578    28391    28412 1
   29579    28392    28393 1
   29580    28392    28413 1
   29581    28392    28414 1
   29582    28393    28394 1
   29583    28393    28415 1
   29584    28393    28416 1
   29585    28394    28395 1
   29586    28394    28417 1
   29587    28394    28418 1
   29588    28395    28396 1
   29589    28395    28419 1
   29590    28395    28420 1
   29591    28396    28397 1
   29592    28396    28421 1
   29593    28396    28422 1
   29594    28397    28398 1
   29595    28397    28423 1
   29596    28397    28424 1
   29597    28398    28399 1
   29598    28398    28425 1
   29599    28398    28426 1
   29600    28399    28400 1
   29601    28399    28427 1
   29602    28399    28428 1
   29603    28400    28401 1
   29604    28400    28429 1
   29605    28400    28430 1
   29606    28401    28402 1
   29607    28401    28431 1
   29608    28401    28432 1
   29609    28402    28433 1
   29610    28402    28434 1
   29611    28402    28435 1
   29612    28436    28437 1
   29613    28436    28443 1
   29614    28436    28459 1
   29615    28436    28508 1
   29616    28437    28438 1
   29617    28437    28441 1
   29618    28438    28439 1
   29619    28438    28442 1
   29620    28439    28440 1
   29621    28440    28441 1
   29622    28441    28447 1
   29623    28442    28443 1
   29624    28442    28446 1
   29625    28443    28444 1
   29626    28444    28445 1
   29627    28444    28448 1
   29628    28445    28446 1
   29629    28445    28457 1
   29630    28449    28450 1
   29631    28449    28457 1
   29632    28450    28451 1
   29633    28450    28458 1
   29634    28451    28452 1
   29635    28451    28561 1
   29636    28452    28453 1
   29637    28452    28456 1
   29638    28453    28454 1
   29639    28454    28455 1
   29640    28455    28456 1
   29641    28456    28457 1
   29642    28459    28460 1
   29643    28459    28475 1
   29644    28459    28476 1
   29645    28460    28461 1
   29646    28460    28477 1
   29647    28460    28478 1
   29648    28461    28462 1
   29649    28461    28479 1
   29650    28461    28480 1
   29651    28462    28463 1
   29652    28462    28481 1
   29653    28462    28482 1
   29654    28463    28464 1
   29655    28463    28483 1
   29656    28463    28484 1
   29657    28464    28465 1
   29658    28464    28485 1
   29659    28464    28486 1
   29660    28465    28466 1
   29661    28465    28487 1
   29662    28465    28488 1
   29663    28466    28467 1
   29664    28466    28489 1
   29665    28466    28490 1
   29666    28467    28468 1
   29667    28467    28491 1
   29668    28467    28492 1
   29669    28468    28469 1
   29670    28468    28493 1
   29671    28468    28494 1
   29672    28469    28470 1
   29673    28469    28495 1
   29674    28469    28496 1
   29675    28470    28471 1
   29676    28470    28497 1
   29677    28470    28498 1
   29678    28471    28472 1
   29679    28471    28499 1
   29680    28471    28500 1
   29681    28472    28473 1
   29682    28472    28501 1
   29683    28472    28502 1
   29684    28473    28474 1
   29685    28473    28503 1
   29686    28473    28504 1
   29687    28474    28505 1
   29688    28474    28506 1
   29689    28474    28507 1
   29690    28508    28509 1
   29691    28508    28524 1
   29692    28508    28525 1
   29693    28509    28510 1
   29694    28509    28526 1
   29695    28509    28527 1
   29696    28510    28511 1
   29697    28510    28528 1
   29698    28510    28529 1
   29699    28511    28512 1
   29700    28511    28530 1
   29701    28511    28531 1
   29702    28512    28513 1
   29703    28512    28532 1
   29704    28512    28533 1
   29705    28513    28514 1
   29706    28513    28534 1
   29707    28513    28535 1
   29708    28514    28515 1
   29709    28514    28536 1
   29710    28514    28537 1
   29711    28515    28516 1
   29712    28515    28538 1
   29713    28515    28539 1
   29714    28516    28517 1
   29715    28516    28540 1
   29716    28516    28541 1
   29717    28517    28518 1
   29718    28517    28542 1
   29719    28517    28543 1
   29720    28518    28519 1
   29721    28518    28544 1
   29722    28518    28545 1
   29723    28519    28520 1
   29724    28519    28546 1
   29725    28519    28547 1
   29726    28520    28521 1
   29727    28520    28548 1
   29728    28520    28549 1
   29729    28521    28522 1
   29730    28521    28550 1
   29731    28521    28551 1
   29732    28522    28523 1
   29733    28522    28552 1
   29734    28522    28553 1
   29735    28523    28554 1
   29736    28523    28555 1
   29737    28523    28556 1
   29738    28557    28558 1
   29739    28557    28564 1
   29740    28557    28580 1
   29741    28557    28629 1
   29742    28558    28559 1
   29743    28558    28562 1
   29744    28559    28560 1
   29745    28559    28563 1
   29746    28560    28561 1
   29747    28561    28562 1
   29748    28562    28568 1
   29749    28563    28564 1
   29750    28563    28567 1
   29751    28564    28565 1
   29752    28565    28566 1
   29753    28565    28569 1
   29754    28566    28567 1
   29755    28566    28578 1
   29756    28570    28571 1
   29757    28570    28578 1
   29758    28571    28572 1
   29759    28571    28579 1
   29760    28572    28573 1
   29761    28572    28682 1
   29762    28573    28574 1
   29763    28573    28577 1
   29764    28574    28575 1
   29765    28575    28576 1
   29766    28576    28577 1
   29767    28577    28578 1
   29768    28580    28581 1
   29769    28580    28596 1
   29770    28580    28597 1
   29771    28581    28582 1
   29772    28581    28598 1
   29773    28581    28599 1
   29774    28582    28583 1
   29775    28582    28600 1
   29776    28582    28601 1
   29777    28583    28584 1
   29778    28583    28602 1
   29779    28583    28603 1
   29780    28584    28585 1
   29781    28584    28604 1
   29782    28584    28605 1
   29783    28585    28586 1
   29784    28585    28606 1
   29785    28585    28607 1
   29786    28586    28587 1
   29787    28586    28608 1
   29788    28586    28609 1
   29789    28587    28588 1
   29790    28587    28610 1
   29791    28587    28611 1
   29792    28588    28589 1
   29793    28588    28612 1
   29794    28588    28613 1
   29795    28589    28590 1
   29796    28589    28614 1
   29797    28589    28615 1
   29798    28590    28591 1
   29799    28590    28616 1
   29800    28590    28617 1
   29801    28591    28592 1
   29802    28591    28618 1
   29803    28591    28619 1
   29804    28592    28593 1
   29805    28592    28620 1
   29806    28592    28621 1
   29807    28593    28594 1
   29808    28593    28622 1
   29809    28593    28623 1
   29810    28594    28595 1
   29811    28594    28624 1
   29812    28594    28625 1
   29813    28595    28626 1
   29814    28595    28627 1
   29815    28595    28628 1
   29816    28629    28630 1
   29817    28629    28645 1
   29818    28629    28646 1
   29819    28630    28631 1
   29820    28630    28647 1
   29821    28630    28648 1
   29822    28631    28632 1
   29823    28631    28649 1
   29824    28631    28650 1
   29825    28632    28633 1
   29826    28632    28651 1
   29827    28632    28652 1
   29828    28633    28634 1
   29829    28633    28653 1
   29830    28633    28654 1
   29831    28634    28635 1
   29832    28634    28655 1
   29833    28634    28656 1
   29834    28635    28636 1
   29835    28635    28657 1
   29836    28635    28658 1
   29837    28636    28637 1
   29838    28636    28659 1
   29839    28636    28660 1
   29840    28637    28638 1
   29841    28637    28661 1
   29842    28637    28662 1
   29843    28638    28639 1
   29844    28638    28663 1
   29845    28638    28664 1
   29846    28639    28640 1
   29847    28639    28665 1
   29848    28639    28666 1
   29849    28640    28641 1
   29850    28640    28667 1
   29851    28640    28668 1
   29852    28641    28642 1
   29853    28641    28669 1
   29854    28641    28670 1
   29855    28642    28643 1
   29856    28642    28671 1
   29857    28642    28672 1
   29858    28643    28644 1
   29859    28643    28673 1
   29860    28643    28674 1
   29861    28644    28675 1
   29862    28644    28676 1
   29863    28644    28677 1
   29864    28678    28679 1
   29865    28678    28685 1
   29866    28678    28701 1
   29867    28678    28750 1
   29868    28679    28680 1
   29869    28679    28683 1
   29870    28680    28681 1
   29871    28680    28684 1
   29872    28681    28682 1
   29873    28682    28683 1
   29874    28683    28689 1
   29875    28684    28685 1
   29876    28684    28688 1
   29877    28685    28686 1
   29878    28686    28687 1
   29879    28686    28690 1
   29880    28687    28688 1
   29881    28687    28699 1
   29882    28691    28692 1
   29883    28691    28699 1
   29884    28692    28693 1
   29885    28692    28700 1
   29886    28693    28694 1
   29887    28693    28803 1
   29888    28694    28695 1
   29889    28694    28698 1
   29890    28695    28696 1
   29891    28696    28697 1
   29892    28697    28698 1
   29893    28698    28699 1
   29894    28701    28702 1
   29895    28701    28717 1
   29896    28701    28718 1
   29897    28702    28703 1
   29898    28702    28719 1
   29899    28702    28720 1
   29900    28703    28704 1
   29901    28703    28721 1
   29902    28703    28722 1
   29903    28704    28705 1
   29904    28704    28723 1
   29905    28704    28724 1
   29906    28705    28706 1
   29907    28705    28725 1
   29908    28705    28726 1
   29909    28706    28707 1
   29910    28706    28727 1
   29911    28706    28728 1
   29912    28707    28708 1
   29913    28707    28729 1
   29914    28707    28730 1
   29915    28708    28709 1
   29916    28708    28731 1
   29917    28708    28732 1
   29918    28709    28710 1
   29919    28709    28733 1
   29920    28709    28734 1
   29921    28710    28711 1
   29922    28710    28735 1
   29923    28710    28736 1
   29924    28711    28712 1
   29925    28711    28737 1
   29926    28711    28738 1
   29927    28712    28713 1
   29928    28712    28739 1
   29929    28712    28740 1
   29930    28713    28714 1
   29931    28713    28741 1
   29932    28713    28742 1
   29933    28714    28715 1
   29934    28714    28743 1
   29935    28714    28744 1
   29936    28715    28716 1
   29937    28715    28745 1
   29938    28715    28746 1
   29939    28716    28747 1
   29940    28716    28748 1
   29941    28716    28749 1
   29942    28750    28751 1
   29943    28750    28766 1
   29944    28750    28767 1
   29945    28751    28752 1
   29946    28751    28768 1
   29947    28751    28769 1
   29948    28752    28753 1
   29949    28752    28770 1
   29950    28752    28771 1
   29951    28753    28754 1
   29952    28753    28772 1
   29953    28753    28773 1
   29954    28754    28755 1
   29955    28754    28774 1
   29956    28754    28775 1
   29957    28755    28756 1
   29958    28755    28776 1
   29959    28755    28777 1
   29960    28756    28757 1
   29961    28756    28778 1
   29962    28756    28779 1
   29963    28757    28758 1
   29964    28757    28780 1
   29965    28757    28781 1
   29966    28758    28759 1
   29967    28758    28782 1
   29968    28758    28783 1
   29969    28759    28760 1
   29970    28759    28784 1
   29971    28759    28785 1
   29972    28760    28761 1
   29973    28760    28786 1
   29974    28760    28787 1
   29975    28761    28762 1
   29976    28761    28788 1
   29977    28761    28789 1
   29978    28762    28763 1
   29979    28762    28790 1
   29980    28762    28791 1
   29981    28763    28764 1
   29982    28763    28792 1
   29983    28763    28793 1
   29984    28764    28765 1
   29985    28764    28794 1
   29986    28764    28795 1
   29987    28765    28796 1
   29988    28765    28797 1
   29989    28765    28798 1
   29990    28799    28800 1
   29991    28799    28806 1
   29992    28799    28822 1
   29993    28799    28871 1
   29994    28800    28801 1
   29995    28800    28804 1
   29996    28801    28802 1
   29997    28801    28805 1
   29998    28802    28803 1
   29999    28803    28804 1
   30000    28804    28810 1
   30001    28805    28806 1
   30002    28805    28809 1
   30003    28806    28807 1
   30004    28807    28808 1
   30005    28807    28811 1
   30006    28808    28809 1
   30007    28808    28820 1
   30008    28812    28813 1
   30009    28812    28820 1
   30010    28813    28814 1
   30011    28813    28821 1
   30012    28814    28815 1
   30013    28814    28924 1
   30014    28815    28816 1
   30015    28815    28819 1
   30016    28816    28817 1
   30017    28817    28818 1
   30018    28818    28819 1
   30019    28819    28820 1
   30020    28822    28823 1
   30021    28822    28838 1
   30022    28822    28839 1
   30023    28823    28824 1
   30024    28823    28840 1
   30025    28823    28841 1
   30026    28824    28825 1
   30027    28824    28842 1
   30028    28824    28843 1
   30029    28825    28826 1
   30030    28825    28844 1
   30031    28825    28845 1
   30032    28826    28827 1
   30033    28826    28846 1
   30034    28826    28847 1
   30035    28827    28828 1
   30036    28827    28848 1
   30037    28827    28849 1
   30038    28828    28829 1
   30039    28828    28850 1
   30040    28828    28851 1
   30041    28829    28830 1
   30042    28829    28852 1
   30043    28829    28853 1
   30044    28830    28831 1
   30045    28830    28854 1
   30046    28830    28855 1
   30047    28831    28832 1
   30048    28831    28856 1
   30049    28831    28857 1
   30050    28832    28833 1
   30051    28832    28858 1
   30052    28832    28859 1
   30053    28833    28834 1
   30054    28833    28860 1
   30055    28833    28861 1
   30056    28834    28835 1
   30057    28834    28862 1
   30058    28834    28863 1
   30059    28835    28836 1
   30060    28835    28864 1
   30061    28835    28865 1
   30062    28836    28837 1
   30063    28836    28866 1
   30064    28836    28867 1
   30065    28837    28868 1
   30066    28837    28869 1
   30067    28837    28870 1
   30068    28871    28872 1
   30069    28871    28887 1
   30070    28871    28888 1
   30071    28872    28873 1
   30072    28872    28889 1
   30073    28872    28890 1
   30074    28873    28874 1
   30075    28873    28891 1
   30076    28873    28892 1
   30077    28874    28875 1
   30078    28874    28893 1
   30079    28874    28894 1
   30080    28875    28876 1
   30081    28875    28895 1
   30082    28875    28896 1
   30083    28876    28877 1
   30084    28876    28897 1
   30085    28876    28898 1
   30086    28877    28878 1
   30087    28877    28899 1
   30088    28877    28900 1
   30089    28878    28879 1
   30090    28878    28901 1
   30091    28878    28902 1
   30092    28879    28880 1
   30093    28879    28903 1
   30094    28879    28904 1
   30095    28880    28881 1
   30096    28880    28905 1
   30097    28880    28906 1
   30098    28881    28882 1
   30099    28881    28907 1
   30100    28881    28908 1
   30101    28882    28883 1
   30102    28882    28909 1
   30103    28882    28910 1
   30104    28883    28884 1
   30105    28883    28911 1
   30106    28883    28912 1
   30107    28884    28885 1
   30108    28884    28913 1
   30109    28884    28914 1
   30110    28885    28886 1
   30111    28885    28915 1
   30112    28885    28916 1
   30113    28886    28917 1
   30114    28886    28918 1
   30115    28886    28919 1
   30116    28920    28921 1
   30117    28920    28927 1
   30118    28920    28943 1
   30119    28920    28992 1
   30120    28921    28922 1
   30121    28921    28925 1
   30122    28922    28923 1
   30123    28922    28926 1
   30124    28923    28924 1
   30125    28924    28925 1
   30126    28925    28931 1
   30127    28926    28927 1
   30128    28926    28930 1
   30129    28927    28928 1
   30130    28928    28929 1
   30131    28928    28932 1
   30132    28929    28930 1
   30133    28929    28941 1
   30134    28933    28934 1
   30135    28933    28941 1
   30136    28934    28935 1
   30137    28934    28942 1
   30138    28935    28936 1
   30139    28935    29045 1
   30140    28936    28937 1
   30141    28936    28940 1
   30142    28937    28938 1
   30143    28938    28939 1
   30144    28939    28940 1
   30145    28940    28941 1
   30146    28943    28944 1
   30147    28943    28959 1
   30148    28943    28960 1
   30149    28944    28945 1
   30150    28944    28961 1
   30151    28944    28962 1
   30152    28945    28946 1
   30153    28945    28963 1
   30154    28945    28964 1
   30155    28946    28947 1
   30156    28946    28965 1
   30157    28946    28966 1
   30158    28947    28948 1
   30159    28947    28967 1
   30160    28947    28968 1
   30161    28948    28949 1
   30162    28948    28969 1
   30163    28948    28970 1
   30164    28949    28950 1
   30165    28949    28971 1
   30166    28949    28972 1
   30167    28950    28951 1
   30168    28950    28973 1
   30169    28950    28974 1
   30170    28951    28952 1
   30171    28951    28975 1
   30172    28951    28976 1
   30173    28952    28953 1
   30174    28952    28977 1
   30175    28952    28978 1
   30176    28953    28954 1
   30177    28953    28979 1
   30178    28953    28980 1
   30179    28954    28955 1
   30180    28954    28981 1
   30181    28954    28982 1
   30182    28955    28956 1
   30183    28955    28983 1
   30184    28955    28984 1
   30185    28956    28957 1
   30186    28956    28985 1
   30187    28956    28986 1
   30188    28957    28958 1
   30189    28957    28987 1
   30190    28957    28988 1
   30191    28958    28989 1
   30192    28958    28990 1
   30193    28958    28991 1
   30194    28992    28993 1
   30195    28992    29008 1
   30196    28992    29009 1
   30197    28993    28994 1
   30198    28993    29010 1
   30199    28993    29011 1
   30200    28994    28995 1
   30201    28994    29012 1
   30202    28994    29013 1
   30203    28995    28996 1
   30204    28995    29014 1
   30205    28995    29015 1
   30206    28996    28997 1
   30207    28996    29016 1
   30208    28996    29017 1
   30209    28997    28998 1
   30210    28997    29018 1
   30211    28997    29019 1
   30212    28998    28999 1
   30213    28998    29020 1
   30214    28998    29021 1
   30215    28999    29000 1
   30216    28999    29022 1
   30217    28999    29023 1
   30218    29000    29001 1
   30219    29000    29024 1
   30220    29000    29025 1
   30221    29001    29002 1
   30222    29001    29026 1
   30223    29001    29027 1
   30224    29002    29003 1
   30225    29002    29028 1
   30226    29002    29029 1
   30227    29003    29004 1
   30228    29003    29030 1
   30229    29003    29031 1
   30230    29004    29005 1
   30231    29004    29032 1
   30232    29004    29033 1
   30233    29005    29006 1
   30234    29005    29034 1
   30235    29005    29035 1
   30236    29006    29007 1
   30237    29006    29036 1
   30238    29006    29037 1
   30239    29007    29038 1
   30240    29007    29039 1
   30241    29007    29040 1
   30242    29041    29042 1
   30243    29041    29048 1
   30244    29041    29064 1
   30245    29041    29113 1
   30246    29042    29043 1
   30247    29042    29046 1
   30248    29043    29044 1
   30249    29043    29047 1
   30250    29044    29045 1
   30251    29045    29046 1
   30252    29046    29052 1
   30253    29047    29048 1
   30254    29047    29051 1
   30255    29048    29049 1
   30256    29049    29050 1
   30257    29049    29053 1
   30258    29050    29051 1
   30259    29050    29062 1
   30260    29054    29055 1
   30261    29054    29062 1
   30262    29055    29056 1
   30263    29055    29063 1
   30264    29056    29057 1
   30265    29056    29166 1
   30266    29057    29058 1
   30267    29057    29061 1
   30268    29058    29059 1
   30269    29059    29060 1
   30270    29060    29061 1
   30271    29061    29062 1
   30272    29064    29065 1
   30273    29064    29080 1
   30274    29064    29081 1
   30275    29065    29066 1
   30276    29065    29082 1
   30277    29065    29083 1
   30278    29066    29067 1
   30279    29066    29084 1
   30280    29066    29085 1
   30281    29067    29068 1
   30282    29067    29086 1
   30283    29067    29087 1
   30284    29068    29069 1
   30285    29068    29088 1
   30286    29068    29089 1
   30287    29069    29070 1
   30288    29069    29090 1
   30289    29069    29091 1
   30290    29070    29071 1
   30291    29070    29092 1
   30292    29070    29093 1
   30293    29071    29072 1
   30294    29071    29094 1
   30295    29071    29095 1
   30296    29072    29073 1
   30297    29072    29096 1
   30298    29072    29097 1
   30299    29073    29074 1
   30300    29073    29098 1
   30301    29073    29099 1
   30302    29074    29075 1
   30303    29074    29100 1
   30304    29074    29101 1
   30305    29075    29076 1
   30306    29075    29102 1
   30307    29075    29103 1
   30308    29076    29077 1
   30309    29076    29104 1
   30310    29076    29105 1
   30311    29077    29078 1
   30312    29077    29106 1
   30313    29077    29107 1
   30314    29078    29079 1
   30315    29078    29108 1
   30316    29078    29109 1
   30317    29079    29110 1
   30318    29079    29111 1
   30319    29079    29112 1
   30320    29113    29114 1
   30321    29113    29129 1
   30322    29113    29130 1
   30323    29114    29115 1
   30324    29114    29131 1
   30325    29114    29132 1
   30326    29115    29116 1
   30327    29115    29133 1
   30328    29115    29134 1
   30329    29116    29117 1
   30330    29116    29135 1
   30331    29116    29136 1
   30332    29117    29118 1
   30333    29117    29137 1
   30334    29117    29138 1
   30335    29118    29119 1
   30336    29118    29139 1
   30337    29118    29140 1
   30338    29119    29120 1
   30339    29119    29141 1
   30340    29119    29142 1
   30341    29120    29121 1
   30342    29120    29143 1
   30343    29120    29144 1
   30344    29121    29122 1
   30345    29121    29145 1
   30346    29121    29146 1
   30347    29122    29123 1
   30348    29122    29147 1
   30349    29122    29148 1
   30350    29123    29124 1
   30351    29123    29149 1
   30352    29123    29150 1
   30353    29124    29125 1
   30354    29124    29151 1
   30355    29124    29152 1
   30356    29125    29126 1
   30357    29125    29153 1
   30358    29125    29154 1
   30359    29126    29127 1
   30360    29126    29155 1
   30361    29126    29156 1
   30362    29127    29128 1
   30363    29127    29157 1
   30364    29127    29158 1
   30365    29128    29159 1
   30366    29128    29160 1
   30367    29128    29161 1
   30368    29162    29163 1
   30369    29162    29169 1
   30370    29162    29185 1
   30371    29162    29234 1
   30372    29163    29164 1
   30373    29163    29167 1
   30374    29164    29165 1
   30375    29164    29168 1
   30376    29165    29166 1
   30377    29166    29167 1
   30378    29167    29173 1
   30379    29168    29169 1
   30380    29168    29172 1
   30381    29169    29170 1
   30382    29170    29171 1
   30383    29170    29174 1
   30384    29171    29172 1
   30385    29171    29183 1
   30386    29175    29176 1
   30387    29175    29183 1
   30388    29176    29177 1
   30389    29176    29184 1
   30390    29177    29178 1
   30391    29177    29287 1
   30392    29178    29179 1
   30393    29178    29182 1
   30394    29179    29180 1
   30395    29180    29181 1
   30396    29181    29182 1
   30397    29182    29183 1
   30398    29185    29186 1
   30399    29185    29201 1
   30400    29185    29202 1
   30401    29186    29187 1
   30402    29186    29203 1
   30403    29186    29204 1
   30404    29187    29188 1
   30405    29187    29205 1
   30406    29187    29206 1
   30407    29188    29189 1
   30408    29188    29207 1
   30409    29188    29208 1
   30410    29189    29190 1
   30411    29189    29209 1
   30412    29189    29210 1
   30413    29190    29191 1
   30414    29190    29211 1
   30415    29190    29212 1
   30416    29191    29192 1
   30417    29191    29213 1
   30418    29191    29214 1
   30419    29192    29193 1
   30420    29192    29215 1
   30421    29192    29216 1
   30422    29193    29194 1
   30423    29193    29217 1
   30424    29193    29218 1
   30425    29194    29195 1
   30426    29194    29219 1
   30427    29194    29220 1
   30428    29195    29196 1
   30429    29195    29221 1
   30430    29195    29222 1
   30431    29196    29197 1
   30432    29196    29223 1
   30433    29196    29224 1
   30434    29197    29198 1
   30435    29197    29225 1
   30436    29197    29226 1
   30437    29198    29199 1
   30438    29198    29227 1
   30439    29198    29228 1
   30440    29199    29200 1
   30441    29199    29229 1
   30442    29199    29230 1
   30443    29200    29231 1
   30444    29200    29232 1
   30445    29200    29233 1
   30446    29234    29235 1
   30447    29234    29250 1
   30448    29234    29251 1
   30449    29235    29236 1
   30450    29235    29252 1
   30451    29235    29253 1
   30452    29236    29237 1
   30453    29236    29254 1
   30454    29236    29255 1
   30455    29237    29238 1
   30456    29237    29256 1
   30457    29237    29257 1
   30458    29238    29239 1
   30459    29238    29258 1
   30460    29238    29259 1
   30461    29239    29240 1
   30462    29239    29260 1
   30463    29239    29261 1
   30464    29240    29241 1
   30465    29240    29262 1
   30466    29240    29263 1
   30467    29241    29242 1
   30468    29241    29264 1
   30469    29241    29265 1
   30470    29242    29243 1
   30471    29242    29266 1
   30472    29242    29267 1
   30473    29243    29244 1
   30474    29243    29268 1
   30475    29243    29269 1
   30476    29244    29245 1
   30477    29244    29270 1
   30478    29244    29271 1
   30479    29245    29246 1
   30480    29245    29272 1
   30481    29245    29273 1
   30482    29246    29247 1
   30483    29246    29274 1
   30484    29246    29275 1
   30485    29247    29248 1
   30486    29247    29276 1
   30487    29247    29277 1
   30488    29248    29249 1
   30489    29248    29278 1
   30490    29248    29279 1
   30491    29249    29280 1
   30492    29249    29281 1
   30493    29249    29282 1
   30494    29283    29284 1
   30495    29283    29290 1
   30496    29283    29306 1
   30497    29283    29355 1
   30498    29284    29285 1
   30499    29284    29288 1
   30500    29285    29286 1
   30501    29285    29289 1
   30502    29286    29287 1
   30503    29287    29288 1
   30504    29288    29294 1
   30505    29289    29290 1
   30506    29289    29293 1
   30507    29290    29291 1
   30508    29291    29292 1
   30509    29291    29295 1
   30510    29292    29293 1
   30511    29292    29304 1
   30512    29296    29297 1
   30513    29296    29304 1
   30514    29297    29298 1
   30515    29297    29305 1
   30516    29298    29299 1
   30517    29298    29408 1
   30518    29299    29300 1
   30519    29299    29303 1
   30520    29300    29301 1
   30521    29301    29302 1
   30522    29302    29303 1
   30523    29303    29304 1
   30524    29306    29307 1
   30525    29306    29322 1
   30526    29306    29323 1
   30527    29307    29308 1
   30528    29307    29324 1
   30529    29307    29325 1
   30530    29308    29309 1
   30531    29308    29326 1
   30532    29308    29327 1
   30533    29309    29310 1
   30534    29309    29328 1
   30535    29309    29329 1
   30536    29310    29311 1
   30537    29310    29330 1
   30538    29310    29331 1
   30539    29311    29312 1
   30540    29311    29332 1
   30541    29311    29333 1
   30542    29312    29313 1
   30543    29312    29334 1
   30544    29312    29335 1
   30545    29313    29314 1
   30546    29313    29336 1
   30547    29313    29337 1
   30548    29314    29315 1
   30549    29314    29338 1
   30550    29314    29339 1
   30551    29315    29316 1
   30552    29315    29340 1
   30553    29315    29341 1
   30554    29316    29317 1
   30555    29316    29342 1
   30556    29316    29343 1
   30557    29317    29318 1
   30558    29317    29344 1
   30559    29317    29345 1
   30560    29318    29319 1
   30561    29318    29346 1
   30562    29318    29347 1
   30563    29319    29320 1
   30564    29319    29348 1
   30565    29319    29349 1
   30566    29320    29321 1
   30567    29320    29350 1
   30568    29320    29351 1
   30569    29321    29352 1
   30570    29321    29353 1
   30571    29321    29354 1
   30572    29355    29356 1
   30573    29355    29371 1
   30574    29355    29372 1
   30575    29356    29357 1
   30576    29356    29373 1
   30577    29356    29374 1
   30578    29357    29358 1
   30579    29357    29375 1
   30580    29357    29376 1
   30581    29358    29359 1
   30582    29358    29377 1
   30583    29358    29378 1
   30584    29359    29360 1
   30585    29359    29379 1
   30586    29359    29380 1
   30587    29360    29361 1
   30588    29360    29381 1
   30589    29360    29382 1
   30590    29361    29362 1
   30591    29361    29383 1
   30592    29361    29384 1
   30593    29362    29363 1
   30594    29362    29385 1
   30595    29362    29386 1
   30596    29363    29364 1
   30597    29363    29387 1
   30598    29363    29388 1
   30599    29364    29365 1
   30600    29364    29389 1
   30601    29364    29390 1
   30602    29365    29366 1
   30603    29365    29391 1
   30604    29365    29392 1
   30605    29366    29367 1
   30606    29366    29393 1
   30607    29366    29394 1
   30608    29367    29368 1
   30609    29367    29395 1
   30610    29367    29396 1
   30611    29368    29369 1
   30612    29368    29397 1
   30613    29368    29398 1
   30614    29369    29370 1
   30615    29369    29399 1
   30616    29369    29400 1
   30617    29370    29401 1
   30618    29370    29402 1
   30619    29370    29403 1
   30620    29404    29405 1
   30621    29404    29411 1
   30622    29404    29427 1
   30623    29404    29476 1
   30624    29405    29406 1
   30625    29405    29409 1
   30626    29406    29407 1
   30627    29406    29410 1
   30628    29407    29408 1
   30629    29408    29409 1
   30630    29409    29415 1
   30631    29410    29411 1
   30632    29410    29414 1
   30633    29411    29412 1
   30634    29412    29413 1
   30635    29412    29416 1
   30636    29413    29414 1
   30637    29413    29425 1
   30638    29417    29418 1
   30639    29417    29425 1
   30640    29418    29419 1
   30641    29418    29426 1
   30642    29419    29420 1
   30643    29419    29529 1
   30644    29420    29421 1
   30645    29420    29424 1
   30646    29421    29422 1
   30647    29422    29423 1
   30648    29423    29424 1
   30649    29424    29425 1
   30650    29427    29428 1
   30651    29427    29443 1
   30652    29427    29444 1
   30653    29428    29429 1
   30654    29428    29445 1
   30655    29428    29446 1
   30656    29429    29430 1
   30657    29429    29447 1
   30658    29429    29448 1
   30659    29430    29431 1
   30660    29430    29449 1
   30661    29430    29450 1
   30662    29431    29432 1
   30663    29431    29451 1
   30664    29431    29452 1
   30665    29432    29433 1
   30666    29432    29453 1
   30667    29432    29454 1
   30668    29433    29434 1
   30669    29433    29455 1
   30670    29433    29456 1
   30671    29434    29435 1
   30672    29434    29457 1
   30673    29434    29458 1
   30674    29435    29436 1
   30675    29435    29459 1
   30676    29435    29460 1
   30677    29436    29437 1
   30678    29436    29461 1
   30679    29436    29462 1
   30680    29437    29438 1
   30681    29437    29463 1
   30682    29437    29464 1
   30683    29438    29439 1
   30684    29438    29465 1
   30685    29438    29466 1
   30686    29439    29440 1
   30687    29439    29467 1
   30688    29439    29468 1
   30689    29440    29441 1
   30690    29440    29469 1
   30691    29440    29470 1
   30692    29441    29442 1
   30693    29441    29471 1
   30694    29441    29472 1
   30695    29442    29473 1
   30696    29442    29474 1
   30697    29442    29475 1
   30698    29476    29477 1
   30699    29476    29492 1
   30700    29476    29493 1
   30701    29477    29478 1
   30702    29477    29494 1
   30703    29477    29495 1
   30704    29478    29479 1
   30705    29478    29496 1
   30706    29478    29497 1
   30707    29479    29480 1
   30708    29479    29498 1
   30709    29479    29499 1
   30710    29480    29481 1
   30711    29480    29500 1
   30712    29480    29501 1
   30713    29481    29482 1
   30714    29481    29502 1
   30715    29481    29503 1
   30716    29482    29483 1
   30717    29482    29504 1
   30718    29482    29505 1
   30719    29483    29484 1
   30720    29483    29506 1
   30721    29483    29507 1
   30722    29484    29485 1
   30723    29484    29508 1
   30724    29484    29509 1
   30725    29485    29486 1
   30726    29485    29510 1
   30727    29485    29511 1
   30728    29486    29487 1
   30729    29486    29512 1
   30730    29486    29513 1
   30731    29487    29488 1
   30732    29487    29514 1
   30733    29487    29515 1
   30734    29488    29489 1
   30735    29488    29516 1
   30736    29488    29517 1
   30737    29489    29490 1
   30738    29489    29518 1
   30739    29489    29519 1
   30740    29490    29491 1
   30741    29490    29520 1
   30742    29490    29521 1
   30743    29491    29522 1
   30744    29491    29523 1
   30745    29491    29524 1
   30746    29525    29526 1
   30747    29525    29532 1
   30748    29525    29548 1
   30749    29525    29597 1
   30750    29526    29527 1
   30751    29526    29530 1
   30752    29527    29528 1
   30753    29527    29531 1
   30754    29528    29529 1
   30755    29529    29530 1
   30756    29530    29536 1
   30757    29531    29532 1
   30758    29531    29535 1
   30759    29532    29533 1
   30760    29533    29534 1
   30761    29533    29537 1
   30762    29534    29535 1
   30763    29534    29546 1
   30764    29538    29539 1
   30765    29538    29546 1
   30766    29539    29540 1
   30767    29539    29547 1
   30768    29540    29541 1
   30769    29540    29650 1
   30770    29541    29542 1
   30771    29541    29545 1
   30772    29542    29543 1
   30773    29543    29544 1
   30774    29544    29545 1
   30775    29545    29546 1
   30776    29548    29549 1
   30777    29548    29564 1
   30778    29548    29565 1
   30779    29549    29550 1
   30780    29549    29566 1
   30781    29549    29567 1
   30782    29550    29551 1
   30783    29550    29568 1
   30784    29550    29569 1
   30785    29551    29552 1
   30786    29551    29570 1
   30787    29551    29571 1
   30788    29552    29553 1
   30789    29552    29572 1
   30790    29552    29573 1
   30791    29553    29554 1
   30792    29553    29574 1
   30793    29553    29575 1
   30794    29554    29555 1
   30795    29554    29576 1
   30796    29554    29577 1
   30797    29555    29556 1
   30798    29555    29578 1
   30799    29555    29579 1
   30800    29556    29557 1
   30801    29556    29580 1
   30802    29556    29581 1
   30803    29557    29558 1
   30804    29557    29582 1
   30805    29557    29583 1
   30806    29558    29559 1
   30807    29558    29584 1
   30808    29558    29585 1
   30809    29559    29560 1
   30810    29559    29586 1
   30811    29559    29587 1
   30812    29560    29561 1
   30813    29560    29588 1
   30814    29560    29589 1
   30815    29561    29562 1
   30816    29561    29590 1
   30817    29561    29591 1
   30818    29562    29563 1
   30819    29562    29592 1
   30820    29562    29593 1
   30821    29563    29594 1
   30822    29563    29595 1
   30823    29563    29596 1
   30824    29597    29598 1
   30825    29597    29613 1
   30826    29597    29614 1
   30827    29598    29599 1
   30828    29598    29615 1
   30829    29598    29616 1
   30830    29599    29600 1
   30831    29599    29617 1
   30832    29599    29618 1
   30833    29600    29601 1
   30834    29600    29619 1
   30835    29600    29620 1
   30836    29601    29602 1
   30837    29601    29621 1
   30838    29601    29622 1
   30839    29602    29603 1
   30840    29602    29623 1
   30841    29602    29624 1
   30842    29603    29604 1
   30843    29603    29625 1
   30844    29603    29626 1
   30845    29604    29605 1
   30846    29604    29627 1
   30847    29604    29628 1
   30848    29605    29606 1
   30849    29605    29629 1
   30850    29605    29630 1
   30851    29606    29607 1
   30852    29606    29631 1
   30853    29606    29632 1
   30854    29607    29608 1
   30855    29607    29633 1
   30856    29607    29634 1
   30857    29608    29609 1
   30858    29608    29635 1
   30859    29608    29636 1
   30860    29609    29610 1
   30861    29609    29637 1
   30862    29609    29638 1
   30863    29610    29611 1
   30864    29610    29639 1
   30865    29610    29640 1
   30866    29611    29612 1
   30867    29611    29641 1
   30868    29611    29642 1
   30869    29612    29643 1
   30870    29612    29644 1
   30871    29612    29645 1
   30872    29646    29647 1
   30873    29646    29653 1
   30874    29646    29669 1
   30875    29646    29718 1
   30876    29647    29648 1
   30877    29647    29651 1
   30878    29648    29649 1
   30879    29648    29652 1
   30880    29649    29650 1
   30881    29650    29651 1
   30882    29651    29657 1
   30883    29652    29653 1
   30884    29652    29656 1
   30885    29653    29654 1
   30886    29654    29655 1
   30887    29654    29658 1
   30888    29655    29656 1
   30889    29655    29667 1
   30890    29659    29660 1
   30891    29659    29667 1
   30892    29660    29661 1
   30893    29660    29668 1
   30894    29661    29662 1
   30895    29661    29771 1
   30896    29662    29663 1
   30897    29662    29666 1
   30898    29663    29664 1
   30899    29664    29665 1
   30900    29665    29666 1
   30901    29666    29667 1
   30902    29669    29670 1
   30903    29669    29685 1
   30904    29669    29686 1
   30905    29670    29671 1
   30906    29670    29687 1
   30907    29670    29688 1
   30908    29671    29672 1
   30909    29671    29689 1
   30910    29671    29690 1
   30911    29672    29673 1
   30912    29672    29691 1
   30913    29672    29692 1
   30914    29673    29674 1
   30915    29673    29693 1
   30916    29673    29694 1
   30917    29674    29675 1
   30918    29674    29695 1
   30919    29674    29696 1
   30920    29675    29676 1
   30921    29675    29697 1
   30922    29675    29698 1
   30923    29676    29677 1
   30924    29676    29699 1
   30925    29676    29700 1
   30926    29677    29678 1
   30927    29677    29701 1
   30928    29677    29702 1
   30929    29678    29679 1
   30930    29678    29703 1
   30931    29678    29704 1
   30932    29679    29680 1
   30933    29679    29705 1
   30934    29679    29706 1
   30935    29680    29681 1
   30936    29680    29707 1
   30937    29680    29708 1
   30938    29681    29682 1
   30939    29681    29709 1
   30940    29681    29710 1
   30941    29682    29683 1
   30942    29682    29711 1
   30943    29682    29712 1
   30944    29683    29684 1
   30945    29683    29713 1
   30946    29683    29714 1
   30947    29684    29715 1
   30948    29684    29716 1
   30949    29684    29717 1
   30950    29718    29719 1
   30951    29718    29734 1
   30952    29718    29735 1
   30953    29719    29720 1
   30954    29719    29736 1
   30955    29719    29737 1
   30956    29720    29721 1
   30957    29720    29738 1
   30958    29720    29739 1
   30959    29721    29722 1
   30960    29721    29740 1
   30961    29721    29741 1
   30962    29722    29723 1
   30963    29722    29742 1
   30964    29722    29743 1
   30965    29723    29724 1
   30966    29723    29744 1
   30967    29723    29745 1
   30968    29724    29725 1
   30969    29724    29746 1
   30970    29724    29747 1
   30971    29725    29726 1
   30972    29725    29748 1
   30973    29725    29749 1
   30974    29726    29727 1
   30975    29726    29750 1
   30976    29726    29751 1
   30977    29727    29728 1
   30978    29727    29752 1
   30979    29727    29753 1
   30980    29728    29729 1
   30981    29728    29754 1
   30982    29728    29755 1
   30983    29729    29730 1
   30984    29729    29756 1
   30985    29729    29757 1
   30986    29730    29731 1
   30987    29730    29758 1
   30988    29730    29759 1
   30989    29731    29732 1
   30990    29731    29760 1
   30991    29731    29761 1
   30992    29732    29733 1
   30993    29732    29762 1
   30994    29732    29763 1
   30995    29733    29764 1
   30996    29733    29765 1
   30997    29733    29766 1
   30998    29767    29768 1
   30999    29767    29774 1
   31000    29767    29790 1
   31001    29767    29839 1
   31002    29768    29769 1
   31003    29768    29772 1
   31004    29769    29770 1
   31005    29769    29773 1
   31006    29770    29771 1
   31007    29771    29772 1
   31008    29772    29778 1
   31009    29773    29774 1
   31010    29773    29777 1
   31011    29774    29775 1
   31012    29775    29776 1
   31013    29775    29779 1
   31014    29776    29777 1
   31015    29776    29788 1
   31016    29780    29781 1
   31017    29780    29788 1
   31018    29781    29782 1
   31019    29781    29789 1
   31020    29782    29783 1
   31021    29782    29892 1
   31022    29783    29784 1
   31023    29783    29787 1
   31024    29784    29785 1
   31025    29785    29786 1
   31026    29786    29787 1
   31027    29787    29788 1
   31028    29790    29791 1
   31029    29790    29806 1
   31030    29790    29807 1
   31031    29791    29792 1
   31032    29791    29808 1
   31033    29791    29809 1
   31034    29792    29793 1
   31035    29792    29810 1
   31036    29792    29811 1
   31037    29793    29794 1
   31038    29793    29812 1
   31039    29793    29813 1
   31040    29794    29795 1
   31041    29794    29814 1
   31042    29794    29815 1
   31043    29795    29796 1
   31044    29795    29816 1
   31045    29795    29817 1
   31046    29796    29797 1
   31047    29796    29818 1
   31048    29796    29819 1
   31049    29797    29798 1
   31050    29797    29820 1
   31051    29797    29821 1
   31052    29798    29799 1
   31053    29798    29822 1
   31054    29798    29823 1
   31055    29799    29800 1
   31056    29799    29824 1
   31057    29799    29825 1
   31058    29800    29801 1
   31059    29800    29826 1
   31060    29800    29827 1
   31061    29801    29802 1
   31062    29801    29828 1
   31063    29801    29829 1
   31064    29802    29803 1
   31065    29802    29830 1
   31066    29802    29831 1
   31067    29803    29804 1
   31068    29803    29832 1
   31069    29803    29833 1
   31070    29804    29805 1
   31071    29804    29834 1
   31072    29804    29835 1
   31073    29805    29836 1
   31074    29805    29837 1
   31075    29805    29838 1
   31076    29839    29840 1
   31077    29839    29855 1
   31078    29839    29856 1
   31079    29840    29841 1
   31080    29840    29857 1
   31081    29840    29858 1
   31082    29841    29842 1
   31083    29841    29859 1
   31084    29841    29860 1
   31085    29842    29843 1
   31086    29842    29861 1
   31087    29842    29862 1
   31088    29843    29844 1
   31089    29843    29863 1
   31090    29843    29864 1
   31091    29844    29845 1
   31092    29844    29865 1
   31093    29844    29866 1
   31094    29845    29846 1
   31095    29845    29867 1
   31096    29845    29868 1
   31097    29846    29847 1
   31098    29846    29869 1
   31099    29846    29870 1
   31100    29847    29848 1
   31101    29847    29871 1
   31102    29847    29872 1
   31103    29848    29849 1
   31104    29848    29873 1
   31105    29848    29874 1
   31106    29849    29850 1
   31107    29849    29875 1
   31108    29849    29876 1
   31109    29850    29851 1
   31110    29850    29877 1
   31111    29850    29878 1
   31112    29851    29852 1
   31113    29851    29879 1
   31114    29851    29880 1
   31115    29852    29853 1
   31116    29852    29881 1
   31117    29852    29882 1
   31118    29853    29854 1
   31119    29853    29883 1
   31120    29853    29884 1
   31121    29854    29885 1
   31122    29854    29886 1
   31123    29854    29887 1
   31124    29888    29889 1
   31125    29888    29895 1
   31126    29888    29911 1
   31127    29888    29960 1
   31128    29889    29890 1
   31129    29889    29893 1
   31130    29890    29891 1
   31131    29890    29894 1
   31132    29891    29892 1
   31133    29892    29893 1
   31134    29893    29899 1
   31135    29894    29895 1
   31136    29894    29898 1
   31137    29895    29896 1
   31138    29896    29897 1
   31139    29896    29900 1
   31140    29897    29898 1
   31141    29897    29909 1
   31142    29901    29902 1
   31143    29901    29909 1
   31144    29902    29903 1
   31145    29902    29910 1
   31146    29903    29904 1
   31147    29903    30013 1
   31148    29904    29905 1
   31149    29904    29908 1
   31150    29905    29906 1
   31151    29906    29907 1
   31152    29907    29908 1
   31153    29908    29909 1
   31154    29911    29912 1
   31155    29911    29927 1
   31156    29911    29928 1
   31157    29912    29913 1
   31158    29912    29929 1
   31159    29912    29930 1
   31160    29913    29914 1
   31161    29913    29931 1
   31162    29913    29932 1
   31163    29914    29915 1
   31164    29914    29933 1
   31165    29914    29934 1
   31166    29915    29916 1
   31167    29915    29935 1
   31168    29915    29936 1
   31169    29916    29917 1
   31170    29916    29937 1
   31171    29916    29938 1
   31172    29917    29918 1
   31173    29917    29939 1
   31174    29917    29940 1
   31175    29918    29919 1
   31176    29918    29941 1
   31177    29918    29942 1
   31178    29919    29920 1
   31179    29919    29943 1
   31180    29919    29944 1
   31181    29920    29921 1
   31182    29920    29945 1
   31183    29920    29946 1
   31184    29921    29922 1
   31185    29921    29947 1
   31186    29921    29948 1
   31187    29922    29923 1
   31188    29922    29949 1
   31189    29922    29950 1
   31190    29923    29924 1
   31191    29923    29951 1
   31192    29923    29952 1
   31193    29924    29925 1
   31194    29924    29953 1
   31195    29924    29954 1
   31196    29925    29926 1
   31197    29925    29955 1
   31198    29925    29956 1
   31199    29926    29957 1
   31200    29926    29958 1
   31201    29926    29959 1
   31202    29960    29961 1
   31203    29960    29976 1
   31204    29960    29977 1
   31205    29961    29962 1
   31206    29961    29978 1
   31207    29961    29979 1
   31208    29962    29963 1
   31209    29962    29980 1
   31210    29962    29981 1
   31211    29963    29964 1
   31212    29963    29982 1
   31213    29963    29983 1
   31214    29964    29965 1
   31215    29964    29984 1
   31216    29964    29985 1
   31217    29965    29966 1
   31218    29965    29986 1
   31219    29965    29987 1
   31220    29966    29967 1
   31221    29966    29988 1
   31222    29966    29989 1
   31223    29967    29968 1
   31224    29967    29990 1
   31225    29967    29991 1
   31226    29968    29969 1
   31227    29968    29992 1
   31228    29968    29993 1
   31229    29969    29970 1
   31230    29969    29994 1
   31231    29969    29995 1
   31232    29970    29971 1
   31233    29970    29996 1
   31234    29970    29997 1
   31235    29971    29972 1
   31236    29971    29998 1
   31237    29971    29999 1
   31238    29972    29973 1
   31239    29972    30000 1
   31240    29972    30001 1
   31241    29973    29974 1
   31242    29973    30002 1
   31243    29973    30003 1
   31244    29974    29975 1
   31245    29974    30004 1
   31246    29974    30005 1
   31247    29975    30006 1
   31248    29975    30007 1
   31249    29975    30008 1
   31250    30009    30010 1
   31251    30009    30016 1
   31252    30009    30032 1
   31253    30009    30081 1
   31254    30010    30011 1
   31255    30010    30014 1
   31256    30011    30012 1
   31257    30011    30015 1
   31258    30012    30013 1
   31259    30013    30014 1
   31260    30014    30020 1
   31261    30015    30016 1
   31262    30015    30019 1
   31263    30016    30017 1
   31264    30017    30018 1
   31265    30017    30021 1
   31266    30018    30019 1
   31267    30018    30030 1
   31268    30022    30023 1
   31269    30022    30030 1
   31270    30023    30024 1
   31271    30023    30031 1
   31272    30024    30025 1
   31273    30024    30134 1
   31274    30025    30026 1
   31275    30025    30029 1
   31276    30026    30027 1
   31277    30027    30028 1
   31278    30028    30029 1
   31279    30029    30030 1
   31280    30032    30033 1
   31281    30032    30048 1
   31282    30032    30049 1
   31283    30033    30034 1
   31284    30033    30050 1
   31285    30033    30051 1
   31286    30034    30035 1
   31287    30034    30052 1
   31288    30034    30053 1
   31289    30035    30036 1
   31290    30035    30054 1
   31291    30035    30055 1
   31292    30036    30037 1
   31293    30036    30056 1
   31294    30036    30057 1
   31295    30037    30038 1
   31296    30037    30058 1
   31297    30037    30059 1
   31298    30038    30039 1
   31299    30038    30060 1
   31300    30038    30061 1
   31301    30039    30040 1
   31302    30039    30062 1
   31303    30039    30063 1
   31304    30040    30041 1
   31305    30040    30064 1
   31306    30040    30065 1
   31307    30041    30042 1
   31308    30041    30066 1
   31309    30041    30067 1
   31310    30042    30043 1
   31311    30042    30068 1
   31312    30042    30069 1
   31313    30043    30044 1
   31314    30043    30070 1
   31315    30043    30071 1
   31316    30044    30045 1
   31317    30044    30072 1
   31318    30044    30073 1
   31319    30045    30046 1
   31320    30045    30074 1
   31321    30045    30075 1
   31322    30046    30047 1
   31323    30046    30076 1
   31324    30046    30077 1
   31325    30047    30078 1
   31326    30047    30079 1
   31327    30047    30080 1
   31328    30081    30082 1
   31329    30081    30097 1
   31330    30081    30098 1
   31331    30082    30083 1
   31332    30082    30099 1
   31333    30082    30100 1
   31334    30083    30084 1
   31335    30083    30101 1
   31336    30083    30102 1
   31337    30084    30085 1
   31338    30084    30103 1
   31339    30084    30104 1
   31340    30085    30086 1
   31341    30085    30105 1
   31342    30085    30106 1
   31343    30086    30087 1
   31344    30086    30107 1
   31345    30086    30108 1
   31346    30087    30088 1
   31347    30087    30109 1
   31348    30087    30110 1
   31349    30088    30089 1
   31350    30088    30111 1
   31351    30088    30112 1
   31352    30089    30090 1
   31353    30089    30113 1
   31354    30089    30114 1
   31355    30090    30091 1
   31356    30090    30115 1
   31357    30090    30116 1
   31358    30091    30092 1
   31359    30091    30117 1
   31360    30091    30118 1
   31361    30092    30093 1
   31362    30092    30119 1
   31363    30092    30120 1
   31364    30093    30094 1
   31365    30093    30121 1
   31366    30093    30122 1
   31367    30094    30095 1
   31368    30094    30123 1
   31369    30094    30124 1
   31370    30095    30096 1
   31371    30095    30125 1
   31372    30095    30126 1
   31373    30096    30127 1
   31374    30096    30128 1
   31375    30096    30129 1
   31376    30130    30131 1
   31377    30130    30137 1
   31378    30130    30153 1
   31379    30130    30202 1
   31380    30131    30132 1
   31381    30131    30135 1
   31382    30132    30133 1
   31383    30132    30136 1
   31384    30133    30134 1
   31385    30134    30135 1
   31386    30135    30141 1
   31387    30136    30137 1
   31388    30136    30140 1
   31389    30137    30138 1
   31390    30138    30139 1
   31391    30138    30142 1
   31392    30139    30140 1
   31393    30139    30151 1
   31394    30143    30144 1
   31395    30143    30151 1
   31396    30144    30145 1
   31397    30144    30152 1
   31398    30145    30146 1
   31399    30145    30252 1
   31400    30146    30147 1
   31401    30146    30150 1
   31402    30147    30148 1
   31403    30148    30149 1
   31404    30149    30150 1
   31405    30150    30151 1
   31406    30153    30154 1
   31407    30153    30169 1
   31408    30153    30170 1
   31409    30154    30155 1
   31410    30154    30171 1
   31411    30154    30172 1
   31412    30155    30156 1
   31413    30155    30173 1
   31414    30155    30174 1
   31415    30156    30157 1
   31416    30156    30175 1
   31417    30156    30176 1
   31418    30157    30158 1
   31419    30157    30177 1
   31420    30157    30178 1
   31421    30158    30159 1
   31422    30158    30179 1
   31423    30158    30180 1
   31424    30159    30160 1
   31425    30159    30181 1
   31426    30159    30182 1
   31427    30160    30161 1
   31428    30160    30183 1
   31429    30160    30184 1
   31430    30161    30162 1
   31431    30161    30185 1
   31432    30161    30186 1
   31433    30162    30163 1
   31434    30162    30187 1
   31435    30162    30188 1
   31436    30163    30164 1
   31437    30163    30189 1
   31438    30163    30190 1
   31439    30164    30165 1
   31440    30164    30191 1
   31441    30164    30192 1
   31442    30165    30166 1
   31443    30165    30193 1
   31444    30165    30194 1
   31445    30166    30167 1
   31446    30166    30195 1
   31447    30166    30196 1
   31448    30167    30168 1
   31449    30167    30197 1
   31450    30167    30198 1
   31451    30168    30199 1
   31452    30168    30200 1
   31453    30168    30201 1
   31454    30202    30203 1
   31455    30202    30218 1
   31456    30202    30219 1
   31457    30203    30204 1
   31458    30203    30220 1
   31459    30203    30221 1
   31460    30204    30205 1
   31461    30204    30222 1
   31462    30204    30223 1
   31463    30205    30206 1
   31464    30205    30224 1
   31465    30205    30225 1
   31466    30206    30207 1
   31467    30206    30226 1
   31468    30206    30227 1
   31469    30207    30208 1
   31470    30207    30228 1
   31471    30207    30229 1
   31472    30208    30209 1
   31473    30208    30230 1
   31474    30208    30231 1
   31475    30209    30210 1
   31476    30209    30232 1
   31477    30209    30233 1
   31478    30210    30211 1
   31479    30210    30234 1
   31480    30210    30235 1
   31481    30211    30212 1
   31482    30211    30236 1
   31483    30211    30237 1
   31484    30212    30213 1
   31485    30212    30238 1
   31486    30212    30239 1
   31487    30213    30214 1
   31488    30213    30240 1
   31489    30213    30241 1
   31490    30214    30215 1
   31491    30214    30242 1
   31492    30214    30243 1
   31493    30215    30216 1
   31494    30215    30244 1
   31495    30215    30245 1
   31496    30216    30217 1
   31497    30216    30246 1
   31498    30216    30247 1
   31499    30217    30248 1
   31500    30217    30249 1
   31501    30217    30250 1
@<TRIPOS>SUBSTRUCTURE
       1 RES             1 RESIDUE    0 **** ROOT      0
