@<TRIPOS>MOLECULE
RES
3632 3781 1 0 1
SMALL
NO_CHARGES
@<TRIPOS>CRYSIN
  197.9891   198.2514    90.6763    90.0000    90.0000    90.0000 1 1
@<TRIPOS>ATOM
       1 C0           9.7771     9.6221     8.7739 C0            1 RES     
       2 C1           8.7890    10.1868     9.8026 C1            1 RES     
       3 C1           9.3992    10.7087    10.8897 C1            1 RES     
       4 S2           8.3101    11.3428    11.9884 S2            1 RES     
       5 C1           6.9702    10.9366    11.0137 C1            1 RES     
       6 C1           7.3987    10.3100     9.8378 C1            1 RES     
       7 C1          10.7991    10.5479    10.7311 C1            1 RES     
       8 C1          11.0652     9.9038     9.5571 C1            1 RES     
       9 C1          12.4324     9.6816     9.3634 C1            1 RES     
      10 C1          13.1959    10.1779    10.4511 C1            1 RES     
      11 S2          12.1658    10.9110    11.5983 S2            1 RES     
      12 H3           6.7375     9.9642     9.0555 H3            1 RES     
      13 H3          12.8296     9.1808     8.4933 H3            1 RES     
      14 N4          16.6459    10.8514    11.8152 N4            1 RES     
      15 C1          15.3067    10.9420    11.5751 C1            1 RES     
      16 C1          14.6639    10.0696    10.6663 C1            1 RES     
      17 C1          15.4622     9.0959    10.0393 C1            1 RES     
      18 N4          14.9978     8.1537     9.1802 N4            1 RES     
      19 S2          16.3595     7.2872     8.8240 S2            1 RES     
      20 N4          17.5414     8.0321     9.7047 N4            1 RES     
      21 C1          16.8543     9.0195    10.3279 C1            1 RES     
      22 C1          17.4310     9.9159    11.2175 C1            1 RES     
      23 H5          14.7491    11.7114    12.0914 H5            1 RES     
      24 C0           9.6241    10.6023     7.5485 C0            1 RES     
      25 C0          10.5316    10.7331     6.2748 C0            1 RES     
      26 C0          10.3156    12.1501     5.6277 C0            1 RES     
      27 C0           9.0305    12.4488     4.7999 C0            1 RES     
      28 C0           7.6632    12.4766     5.5142 C0            1 RES     
      29 C0           7.5565    13.4407     6.7114 C0            1 RES     
      30 C0           7.7565    14.9118     6.3238 C0            1 RES     
      31 C0           7.5830    15.8216     7.5380 C0            1 RES     
      32 C0          10.3442     9.6698     5.1551 C0            1 RES     
      33 C0          11.1374     8.3785     5.3333 C0            1 RES     
      34 C0          10.7747     7.3644     4.2328 C0            1 RES     
      35 C0          11.5117     6.0281     4.4138 C0            1 RES     
      36 C0          10.9551     4.9659     3.4498 C0            1 RES     
      37 C0          11.5031     3.5493     3.7037 C0            1 RES     
      38 C0          11.0439     2.9713     5.0573 C0            1 RES     
      39 C0          11.4991     1.5265     5.2366 C0            1 RES     
      40 H6           8.5794    10.5157     7.2183 H6            1 RES     
      41 H6           9.7463    11.5970     8.0311 H6            1 RES     
      42 H6          11.5930    10.7506     6.6086 H6            1 RES     
      43 H6          11.1521    12.2868     4.9058 H6            1 RES     
      44 H6          10.4578    12.9453     6.3907 H6            1 RES     
      45 H6           8.9596    11.7281     3.9582 H6            1 RES     
      46 H6           9.1778    13.4470     4.3356 H6            1 RES     
      47 H6           7.3835    11.4587     5.8322 H6            1 RES     
      48 H6           6.8920    12.7639     4.7665 H6            1 RES     
      49 H6           8.2842    13.1651     7.4967 H6            1 RES     
      50 H6           6.5381    13.3270     7.1437 H6            1 RES     
      51 H6           8.7763    15.0675     5.9149 H6            1 RES     
      52 H6           7.0092    15.1971     5.5519 H6            1 RES     
      53 H6           6.5638    15.7075     7.9653 H6            1 RES     
      54 H6           7.7241    16.8802     7.2342 H6            1 RES     
      55 H6           8.3344    15.5717     8.3174 H6            1 RES     
      56 H6          10.7292    10.0776     4.1932 H6            1 RES     
      57 H6           9.2563     9.4765     5.0262 H6            1 RES     
      58 H6          12.2273     8.5977     5.3182 H6            1 RES     
      59 H6          10.8891     7.9531     6.2961 H6            1 RES     
      60 H6           9.6798     7.1769     4.3040 H6            1 RES     
      61 H6          10.9968     7.7779     3.2249 H6            1 RES     
      62 H6          12.6051     6.1586     4.2641 H6            1 RES     
      63 H6          11.3620     5.6905     5.4467 H6            1 RES     
      64 H6           9.8468     4.9177     3.5366 H6            1 RES     
      65 H6          11.2026     5.2731     2.4098 H6            1 RES     
      66 H6          12.6121     3.5504     3.6376 H6            1 RES     
      67 H6          11.1053     2.8918     2.9000 H6            1 RES     
      68 H6           9.9330     2.9971     5.1145 H6            1 RES     
      69 H6          11.4602     3.5595     5.8962 H6            1 RES     
      70 H6          11.1436     1.1467     6.2162 H6            1 RES     
      71 H6          11.0777     0.8852     4.4331 H6            1 RES     
      72 H6          12.6091     1.4666     5.2116 H6            1 RES     
      73 C0           9.3417     8.1235     8.5125 C0            1 RES     
      74 C0          10.2857     6.8793     8.6110 C0            1 RES     
      75 C0           9.7784     5.7347     7.6663 C0            1 RES     
      76 C0           8.5329     4.8874     8.0258 C0            1 RES     
      77 C0           7.1514     5.5709     7.9705 C0            1 RES     
      78 C0           6.7855     6.2370     6.6273 C0            1 RES     
      79 C0           6.7808     5.2727     5.4340 C0            1 RES     
      80 C0           6.3586     5.9986     4.1581 C0            1 RES     
      81 C0          10.5126     6.2596    10.0212 C0            1 RES     
      82 C0          11.3058     7.1247    10.9861 C0            1 RES     
      83 C0          11.6529     6.3912    12.2823 C0            1 RES     
      84 C0          12.4933     7.3074    13.1791 C0            1 RES     
      85 C0          12.8731     6.6132    14.4926 C0            1 RES     
      86 C0          13.7724     7.4829    15.3876 C0            1 RES     
      87 C0          13.0895     8.7780    15.8554 C0            1 RES     
      88 C0          13.9961     9.5680    16.7932 C0            1 RES     
      89 H6           8.4447     7.8767     9.1066 H6            1 RES     
      90 H6           8.9687     8.1686     7.4773 H6            1 RES     
      91 H6          11.2760     7.1712     8.2100 H6            1 RES     
      92 H6          10.6131     5.0026     7.6091 H6            1 RES     
      93 H6           9.6225     6.1243     6.6462 H6            1 RES     
      94 H6           8.6694     4.4216     9.0229 H6            1 RES     
      95 H6           8.5036     4.0464     7.3000 H6            1 RES     
      96 H6           7.0662     6.3174     8.7782 H6            1 RES     
      97 H6           6.3868     4.7949     8.1919 H6            1 RES     
      98 H6           7.4755     7.0690     6.4024 H6            1 RES     
      99 H6           5.7678     6.6721     6.7380 H6            1 RES     
     100 H6           7.7971     4.8557     5.2733 H6            1 RES     
     101 H6           6.0726     4.4387     5.6285 H6            1 RES     
     102 H6           5.3344     6.4146     4.2710 H6            1 RES     
     103 H6           6.3627     5.2900     3.3039 H6            1 RES     
     104 H6           7.0634     6.8285     3.9342 H6            1 RES     
     105 H6          11.1113     5.3317     9.8818 H6            1 RES     
     106 H6           9.5416     5.9806    10.4848 H6            1 RES     
     107 H6          12.2623     7.3974    10.4974 H6            1 RES     
     108 H6          10.7046     8.0119    11.2439 H6            1 RES     
     109 H6          10.7188     6.0965    12.8077 H6            1 RES     
     110 H6          12.2393     5.4747    12.0460 H6            1 RES     
     111 H6          13.4234     7.5960    12.6400 H6            1 RES     
     112 H6          11.9012     8.2218    13.3902 H6            1 RES     
     113 H6          11.9527     6.3324    15.0495 H6            1 RES     
     114 H6          13.4327     5.6823    14.2527 H6            1 RES     
     115 H6          14.7101     7.7291    14.8419 H6            1 RES     
     116 H6          14.0401     6.8796    16.2826 H6            1 RES     
     117 H6          12.1475     8.5296    16.3906 H6            1 RES     
     118 H6          12.8511     9.4274    14.9877 H6            1 RES     
     119 H6          13.4782    10.4962    17.1147 H6            1 RES     
     120 H6          14.2387     8.9652    17.6940 H6            1 RES     
     121 H6          14.9378     9.8471    16.2740 H6            1 RES     
     122 C0          22.8067     9.7506    10.6777 C0            1 RES     
     123 C1          21.3725     9.7663    11.2220 C1            1 RES     
     124 C1          21.3200     9.7540    12.5724 C1            1 RES     
     125 S2          19.7513     9.7977    13.1492 S2            1 RES     
     126 C1          19.0911     9.8457    11.5769 C1            1 RES     
     127 C1          20.1136     9.8285    10.6214 C1            1 RES     
     128 C1          22.6486     9.7143    13.0664 C1            1 RES     
     129 C1          23.5326     9.6770    12.0266 C1            1 RES     
     130 C1          24.8621     9.5977    12.4536 C1            1 RES     
     131 C1          24.9493     9.5658    13.8691 C1            1 RES     
     132 S2          23.3881     9.6771    14.5508 S2            1 RES     
     133 H3          19.9503     9.8589     9.5531 H3            1 RES     
     134 H3          25.6975     9.5537    11.7711 H3            1 RES     
     135 N4          27.2242     9.6282    16.8754 N4            1 RES     
     136 C1          26.1346     9.7870    16.0711 C1            1 RES     
     137 C1          26.1662     9.4054    14.7096 C1            1 RES     
     138 C1          27.3613     8.8390    14.2306 C1            1 RES     
     139 N4          27.5443     8.3768    12.9679 N4            1 RES     
     140 S2          29.0911     7.7963    13.0164 S2            1 RES     
     141 N4          29.5727     8.0892    14.5687 N4            1 RES     
     142 C1          28.4731     8.6721    15.1041 C1            1 RES     
     143 C1          28.3862     9.0823    16.4276 C1            1 RES     
     144 H5          25.2454    10.2268    16.5016 H5            1 RES     
     145 C0          22.9603    11.1752    10.0199 C0            1 RES     
     146 C0          24.2628    11.8885     9.5123 C0            1 RES     
     147 C0          24.0120    13.4396     9.4458 C0            1 RES     
     148 C0          23.1697    14.0509     8.2870 C0            1 RES     
     149 C0          21.6653    13.7215     8.1934 C0            1 RES     
     150 C0          20.8347    14.0373     9.4522 C0            1 RES     
     151 C0          20.8243    15.5288     9.8123 C0            1 RES     
     152 C0          19.9410    15.7870    11.0310 C0            1 RES     
     153 C0          24.8272    11.4425     8.1332 C0            1 RES     
     154 C0          25.7514    10.2286     8.1608 C0            1 RES     
     155 C0          26.1428     9.8138     6.7305 C0            1 RES     
     156 C0          27.0274     8.5573     6.7157 C0            1 RES     
     157 C0          27.2029     8.0334     5.2797 C0            1 RES     
     158 C0          27.9106     6.6680     5.1993 C0            1 RES     
     159 C0          27.0721     5.5301     5.8151 C0            1 RES     
     160 C0          27.7371     4.1712     5.6202 C0            1 RES     
     161 H6          22.2084    11.2234     9.2198 H6            1 RES     
     162 H6          22.6257    11.8466    10.8412 H6            1 RES     
     163 H6          25.0442    11.7774    10.2967 H6            1 RES     
     164 H6          25.0168    13.9070     9.3388 H6            1 RES     
     165 H6          23.6233    13.8068    10.4198 H6            1 RES     
     166 H6          23.6364    13.7873     7.3146 H6            1 RES     
     167 H6          23.2583    15.1543     8.3791 H6            1 RES     
     168 H6          21.5279    12.6637     7.9147 H6            1 RES     
     169 H6          21.2407    14.2982     7.3429 H6            1 RES     
     170 H6          21.2025    13.4531    10.3157 H6            1 RES     
     171 H6          19.7884    13.7172     9.2525 H6            1 RES     
     172 H6          21.8518    15.8758    10.0472 H6            1 RES     
     173 H6          20.4313    16.1152     8.9536 H6            1 RES     
     174 H6          18.8963    15.4688    10.8268 H6            1 RES     
     175 H6          19.9416    16.8715    11.2692 H6            1 RES     
     176 H6          20.3259    15.2289    11.9112 H6            1 RES     
     177 H6          25.4750    12.2498     7.7229 H6            1 RES     
     178 H6          23.9774    11.3036     7.4288 H6            1 RES     
     179 H6          26.6579    10.4558     8.7632 H6            1 RES     
     180 H6          25.2268     9.4083     8.6314 H6            1 RES     
     181 H6          25.2006     9.5894     6.1820 H6            1 RES     
     182 H6          26.6665    10.6433     6.2072 H6            1 RES     
     183 H6          28.0152     8.7663     7.1800 H6            1 RES     
     184 H6          26.5384     7.7858     7.3231 H6            1 RES     
     185 H6          26.2093     7.9259     4.7906 H6            1 RES     
     186 H6          27.7877     8.7833     4.7026 H6            1 RES     
     187 H6          28.9073     6.7242     5.6869 H6            1 RES     
     188 H6          28.0605     6.4361     4.1221 H6            1 RES     
     189 H6          26.0712     5.5019     5.3300 H6            1 RES     
     190 H6          26.9398     5.6847     6.9021 H6            1 RES     
     191 H6          27.1009     3.3815     6.0695 H6            1 RES     
     192 H6          27.8625     3.9531     4.5380 H6            1 RES     
     193 H6          28.7317     4.1544     6.1170 H6            1 RES     
     194 C0          22.8935     8.5226     9.6835 C0            1 RES     
     195 C0          23.9721     7.3903     9.7401 C0            1 RES     
     196 C0          24.2020     6.7854     8.3115 C0            1 RES     
     197 C0          23.1627     5.8389     7.6616 C0            1 RES     
     198 C0          21.8167     6.4418     7.2102 C0            1 RES     
     199 C0          21.9090     7.6347     6.2354 C0            1 RES     
     200 C0          22.6407     7.3144     4.9255 C0            1 RES     
     201 C0          22.6410     8.5290     3.9992 C0            1 RES     
     202 C0          23.7189     6.2052    10.7177 C0            1 RES     
     203 C0          23.7966     6.5584    12.1935 C0            1 RES     
     204 C0          23.7239     5.3262    13.0963 C0            1 RES     
     205 C0          23.8596     5.7567    14.5612 C0            1 RES     
     206 C0          23.7988     4.5525    15.5086 C0            1 RES     
     207 C0          23.9977     4.9437    16.9829 C0            1 RES     
     208 C0          22.8947     5.8713    17.5170 C0            1 RES     
     209 C0          23.1008     6.1723    18.9977 C0            1 RES     
     210 H6          21.9162     8.0135     9.6185 H6            1 RES     
     211 H6          22.9964     9.0225     8.7076 H6            1 RES     
     212 H6          24.9381     7.8545    10.0194 H6            1 RES     
     213 H6          25.1296     6.1775     8.3901 H6            1 RES     
     214 H6          24.4063     7.5905     7.5857 H6            1 RES     
     215 H6          22.9693     4.9758     8.3305 H6            1 RES     
     216 H6          23.6451     5.4166     6.7539 H6            1 RES     
     217 H6          21.2220     6.7402     8.0900 H6            1 RES     
     218 H6          21.2392     5.6323     6.7132 H6            1 RES     
     219 H6          22.4096     8.4940     6.7150 H6            1 RES     
     220 H6          20.8695     7.9494     5.9953 H6            1 RES     
     221 H6          23.6960     7.0385     5.1327 H6            1 RES     
     222 H6          22.1377     6.4667     4.4125 H6            1 RES     
     223 H6          21.5994     8.8255     3.7503 H6            1 RES     
     224 H6          23.1757     8.2835     3.0581 H6            1 RES     
     225 H6          23.1546     9.3863     4.4860 H6            1 RES     
     226 H6          24.5217     5.4546    10.5418 H6            1 RES     
     227 H6          22.7401     5.7247    10.5019 H6            1 RES     
     228 H6          24.7749     7.0443    12.3801 H6            1 RES     
     229 H6          22.9511     7.2191    12.4454 H6            1 RES     
     230 H6          22.7548     4.8045    12.9408 H6            1 RES     
     231 H6          24.5544     4.6292    12.8427 H6            1 RES     
     232 H6          24.8325     6.2791    14.7016 H6            1 RES     
     233 H6          23.0354     6.4630    14.7914 H6            1 RES     
     234 H6          22.8250     4.0292    15.3899 H6            1 RES     
     235 H6          24.6108     3.8437    15.2337 H6            1 RES     
     236 H6          24.9901     5.4314    17.1054 H6            1 RES     
     237 H6          23.9950     4.0072    17.5825 H6            1 RES     
     238 H6          21.9035     5.3863    17.3832 H6            1 RES     
     239 H6          22.9005     6.8373    16.9708 H6            1 RES     
     240 H6          22.2913     6.8428    19.3558 H6            1 RES     
     241 H6          23.0736     5.2331    19.5899 H6            1 RES     
     242 H6          24.0776     6.6775    19.1557 H6            1 RES     
     243 C0          33.3511     9.3017    18.5532 C0            1 RES     
     244 C1          31.8633     9.0369    18.2892 C1            1 RES     
     245 C1          31.2471     8.4140    19.3182 C1            1 RES     
     246 S2          29.6213     8.1563    19.0251 S2            1 RES     
     247 C1          29.7006     8.8950    17.4894 C1            1 RES     
     248 C1          31.0037     9.3352    17.2302 C1            1 RES     
     249 C1          32.2075     8.1856    20.3361 C1            1 RES     
     250 C1          33.4301     8.6426    19.9358 C1            1 RES     
     251 C1          34.4292     8.4092    20.8862 C1            1 RES     
     252 C1          33.9121     7.7427    22.0267 C1            1 RES     
     253 S2          32.2322     7.4981    21.8455 S2            1 RES     
     254 H3          31.3074     9.8416    16.3246 H3            1 RES     
     255 H3          35.4593     8.6977    20.7400 H3            1 RES     
     256 N4          34.6083     6.4908    25.5145 N4            1 RES     
     257 C1          33.9601     6.9712    24.4153 C1            1 RES     
     258 C1          34.6565     7.2474    23.2157 C1            1 RES     
     259 C1          36.0385     6.9862    23.2024 C1            1 RES     
     260 N4          36.8443     7.1493    22.1228 N4            1 RES     
     261 S2          38.3131     6.6451    22.6889 S2            1 RES     
     262 N4          38.0052     6.2153    24.2535 N4            1 RES     
     263 C1          36.6787     6.4678    24.3637 C1            1 RES     
     264 C1          35.9434     6.2331    25.5177 C1            1 RES     
     265 H5          32.8960     7.1484    24.4902 H5            1 RES     
     266 C0          33.4260    10.8729    18.6609 C0            1 RES     
     267 C0          34.6099    11.7681    19.1707 C0            1 RES     
     268 C0          34.0504    13.1755    19.5944 C0            1 RES     
     269 C0          33.6612    14.2253    18.5116 C0            1 RES     
     270 C0          32.4649    13.9396    17.5801 C0            1 RES     
     271 C0          31.1297    13.6330    18.2855 C0            1 RES     
     272 C0          30.6133    14.7998    19.1377 C0            1 RES     
     273 C0          29.2628    14.4587    19.7638 C0            1 RES     
     274 C0          35.7945    12.0070    18.1913 C0            1 RES     
     275 C0          36.8787    10.9333    18.1944 C0            1 RES     
     276 C0          37.9265    11.2191    17.1029 C0            1 RES     
     277 C0          39.0043    10.1257    17.0370 C0            1 RES     
     278 C0          39.8918    10.3119    15.7940 C0            1 RES     
     279 C0          40.8687     9.1470    15.5487 C0            1 RES     
     280 C0          40.1452     7.8348    15.1857 C0            1 RES     
     281 C0          41.1319     6.7265    14.8323 C0            1 RES     
     282 H6          33.0973    11.2605    17.6864 H6            1 RES     
     283 H6          32.6254    11.0925    19.4012 H6            1 RES     
     284 H6          34.9859    11.3322    20.1229 H6            1 RES     
     285 H6          34.8625    13.6636    20.1789 H6            1 RES     
     286 H6          33.2099    13.0536    20.3110 H6            1 RES     
     287 H6          34.5444    14.4407    17.8741 H6            1 RES     
     288 H6          33.4372    15.1695    19.0521 H6            1 RES     
     289 H6          32.7146    13.1193    16.8870 H6            1 RES     
     290 H6          32.3180    14.8287    16.9288 H6            1 RES     
     291 H6          31.2234    12.7300    18.9164 H6            1 RES     
     292 H6          30.3765    13.4140    17.4970 H6            1 RES     
     293 H6          31.3287    15.0264    19.9551 H6            1 RES     
     294 H6          30.4951    15.7020    18.4991 H6            1 RES     
     295 H6          28.5124    14.2435    18.9733 H6            1 RES     
     296 H6          28.9044    15.3180    20.3689 H6            1 RES     
     297 H6          29.3580    13.5718    20.4263 H6            1 RES     
     298 H6          36.3427    12.9271    18.4955 H6            1 RES     
     299 H6          35.3841    12.1822    17.1723 H6            1 RES     
     300 H6          37.3610    10.8841    19.1950 H6            1 RES     
     301 H6          36.4156     9.9771    17.9925 H6            1 RES     
     302 H6          37.3895    11.2456    16.1282 H6            1 RES     
     303 H6          38.4090    12.2073    17.2666 H6            1 RES     
     304 H6          39.6205    10.1246    17.9618 H6            1 RES     
     305 H6          38.5026     9.1520    16.9784 H6            1 RES     
     306 H6          39.2569    10.4146    14.8859 H6            1 RES     
     307 H6          40.4694    11.2548    15.9145 H6            1 RES     
     308 H6          41.5191     8.9994    16.4372 H6            1 RES     
     309 H6          41.5121     9.4308    14.6873 H6            1 RES     
     310 H6          39.4834     8.0062    14.3078 H6            1 RES     
     311 H6          39.5314     7.4781    16.0337 H6            1 RES     
     312 H6          40.5730     5.8047    14.5712 H6            1 RES     
     313 H6          41.7527     7.0243    13.9604 H6            1 RES     
     314 H6          41.7939     6.5096    15.6990 H6            1 RES     
     315 C0          34.1409     8.6584    17.3424 C0            1 RES     
     316 C0          35.3284     7.6478    17.4746 C0            1 RES     
     317 C0          36.2796     7.7597    16.2326 C0            1 RES     
     318 C0          35.8724     7.1859    14.8530 C0            1 RES     
     319 C0          34.7449     7.8969    14.0771 C0            1 RES     
     320 C0          34.9558     9.4034    13.8171 C0            1 RES     
     321 C0          36.2273     9.7269    13.0218 C0            1 RES     
     322 C0          36.3321    11.2287    12.7634 C0            1 RES     
     323 C0          34.9738     6.1433    17.6617 C0            1 RES     
     324 C0          34.3312     5.7926    18.9932 C0            1 RES     
     325 C0          34.1773     4.2840    19.1911 C0            1 RES     
     326 C0          33.5715     4.0086    20.5721 C0            1 RES     
     327 C0          33.4024     2.5050    20.8215 C0            1 RES     
     328 C0          32.8573     2.1918    22.2254 C0            1 RES     
     329 C0          31.4464     2.7521    22.4658 C0            1 RES     
     330 C0          30.9263     2.3557    23.8434 C0            1 RES     
     331 H6          33.4358     8.2115    16.6202 H6            1 RES     
     332 H6          34.5263     9.5477    16.8195 H6            1 RES     
     333 H6          35.9434     7.9574    18.3421 H6            1 RES     
     334 H6          37.2010     7.2033    16.5109 H6            1 RES     
     335 H6          36.5748     8.8104    16.0729 H6            1 RES     
     336 H6          35.6246     6.1094    14.9511 H6            1 RES     
     337 H6          36.7796     7.2308    14.2127 H6            1 RES     
     338 H6          33.7808     7.7515    14.5931 H6            1 RES     
     339 H6          34.6437     7.3867    13.0946 H6            1 RES     
     340 H6          34.9852     9.9641    14.7677 H6            1 RES     
     341 H6          34.0748     9.7688    13.2447 H6            1 RES     
     342 H6          37.1268     9.4112    13.5908 H6            1 RES     
     343 H6          36.2071     9.1915    12.0482 H6            1 RES     
     344 H6          35.4573    11.5818    12.1762 H6            1 RES     
     345 H6          37.2571    11.4476    12.1905 H6            1 RES     
     346 H6          36.3704    11.7847    13.7252 H6            1 RES     
     347 H6          35.9282     5.5719    17.6246 H6            1 RES     
     348 H6          34.3245     5.7900    16.8315 H6            1 RES     
     349 H6          34.9911     6.1638    19.8023 H6            1 RES     
     350 H6          33.3285     6.2485    19.0344 H6            1 RES     
     351 H6          33.5206     3.8671    18.3971 H6            1 RES     
     352 H6          35.1761     3.7962    19.1273 H6            1 RES     
     353 H6          34.2377     4.4330    21.3563 H6            1 RES     
     354 H6          32.5858     4.5154    20.6242 H6            1 RES     
     355 H6          32.7264     2.0700    20.0535 H6            1 RES     
     356 H6          34.3970     2.0159    20.7274 H6            1 RES     
     357 H6          33.5564     2.5938    22.9918 H6            1 RES     
     358 H6          32.8230     1.0855    22.3336 H6            1 RES     
     359 H6          30.7526     2.3576    21.6922 H6            1 RES     
     360 H6          31.4538     3.8605    22.4123 H6            1 RES     
     361 H6          29.9076     2.7730    23.9892 H6            1 RES     
     362 H6          30.8744     1.2498    23.9327 H6            1 RES     
     363 H6          31.5926     2.7569    24.6367 H6            1 RES     
     364 C0          39.3264     5.5808    29.6826 C0            1 RES     
     365 C1          38.2016     5.4302    28.6503 C1            1 RES     
     366 C1          37.3744     4.3955    28.9179 C1            1 RES     
     367 S2          36.1397     4.2611    27.7986 S2            1 RES     
     368 C1          36.6854     5.6160    26.9172 C1            1 RES     
     369 C1          37.8293     6.1554    27.5168 C1            1 RES     
     370 C1          37.8356     3.7534    30.0951 C1            1 RES     
     371 C1          38.9650     4.3699    30.5515 C1            1 RES     
     372 C1          39.4899     3.7547    31.6926 C1            1 RES     
     373 C1          38.7123     2.6329    32.0790 C1            1 RES     
     374 S2          37.3798     2.4584    31.0262 S2            1 RES     
     375 H3          38.3587     7.0234    27.1492 H3            1 RES     
     376 H3          40.3833     4.1016    32.1897 H3            1 RES     
     377 N4          38.1374    -0.0446    34.6708 N4            1 RES     
     378 C1          37.9236     0.8661    33.6786 C1            1 RES     
     379 C1          38.9756     1.6706    33.1825 C1            1 RES     
     380 C1          40.2507     1.4753    33.7432 C1            1 RES     
     381 N4          41.3743     2.1273    33.3508 N4            1 RES     
     382 S2          42.5369     1.4553    34.3145 S2            1 RES     
     383 N4          41.7059     0.3576    35.2264 N4            1 RES     
     384 C1          40.4402     0.5026    34.7655 C1            1 RES     
     385 C1          39.3637    -0.2453    35.2228 C1            1 RES     
     386 H5          36.9199     0.9659    33.2885 H5            1 RES     
     387 C0          38.9726     6.9348    30.4089 C0            1 RES     
     388 C0          39.5777     7.5295    31.7292 C0            1 RES     
     389 C0          38.5745     8.5800    32.3319 C0            1 RES     
     390 C0          38.4446     9.9968    31.6981 C0            1 RES     
     391 C0          37.8629    10.1359    30.2759 C0            1 RES     
     392 C0          36.4698     9.5131    30.0621 C0            1 RES     
     393 C0          35.3795    10.1563    30.9292 C0            1 RES     
     394 C0          34.0149     9.5383    30.6325 C0            1 RES     
     395 C0          40.9717     8.2124    31.6288 C0            1 RES     
     396 C0          42.1728     7.2784    31.7444 C0            1 RES     
     397 C0          43.4836     8.0508    31.5076 C0            1 RES     
     398 C0          44.7131     7.1302    31.5584 C0            1 RES     
     399 C0          45.9719     7.8786    31.0865 C0            1 RES     
     400 C0          47.2064     6.9732    30.9200 C0            1 RES     
     401 C0          47.0403     5.9508    29.7779 C0            1 RES     
     402 C0          48.3158     5.1449    29.5532 C0            1 RES     
     403 H6          39.0070     7.7136    29.6342 H6            1 RES     
     404 H6          37.9067     6.7776    30.6852 H6            1 RES     
     405 H6          39.6056     6.7188    32.4909 H6            1 RES     
     406 H6          38.9199     8.7694    33.3733 H6            1 RES     
     407 H6          37.5650     8.1281    32.4386 H6            1 RES     
     408 H6          39.4357    10.4973    31.7103 H6            1 RES     
     409 H6          37.7951    10.5891    32.3770 H6            1 RES     
     410 H6          38.5702     9.7237    29.5375 H6            1 RES     
     411 H6          37.7997    11.2198    30.0362 H6            1 RES     
     412 H6          36.4984     8.4248    30.2545 H6            1 RES     
     413 H6          36.1986     9.6572    28.9931 H6            1 RES     
     414 H6          35.6037    10.0051    32.0054 H6            1 RES     
     415 H6          35.3330    11.2468    30.7185 H6            1 RES     
     416 H6          33.7461     9.6867    29.5647 H6            1 RES     
     417 H6          33.2407    10.0226    31.2641 H6            1 RES     
     418 H6          34.0277     8.4501    30.8567 H6            1 RES     
     419 H6          41.1028     8.9078    32.4884 H6            1 RES     
     420 H6          41.0041     8.8201    30.6976 H6            1 RES     
     421 H6          42.1809     6.7931    32.7447 H6            1 RES     
     422 H6          42.0812     6.5066    30.9924 H6            1 RES     
     423 H6          43.4220     8.5029    30.4923 H6            1 RES     
     424 H6          43.6008     8.8689    32.2513 H6            1 RES     
     425 H6          44.8591     6.7252    32.5829 H6            1 RES     
     426 H6          44.5311     6.2771    30.8933 H6            1 RES     
     427 H6          45.7784     8.3663    30.1052 H6            1 RES     
     428 H6          46.2013     8.6780    31.8251 H6            1 RES     
     429 H6          47.4325     6.4547    31.8761 H6            1 RES     
     430 H6          48.0668     7.6304    30.6664 H6            1 RES     
     431 H6          46.7941     6.4855    28.8337 H6            1 RES     
     432 H6          46.2289     5.2353    30.0073 H6            1 RES     
     433 H6          48.1576     4.4284    28.7215 H6            1 RES     
     434 H6          49.1576     5.8189    29.2857 H6            1 RES     
     435 H6          48.5778     4.5748    30.4711 H6            1 RES     
     436 C0          40.6833     5.5728    28.8687 C0            1 RES     
     437 C0          41.9048     4.6390    29.1602 C0            1 RES     
     438 C0          43.2365     5.3222    28.6914 C0            1 RES     
     439 C0          43.6029     5.4252    27.1902 C0            1 RES     
     440 C0          42.7783     6.3842    26.3076 C0            1 RES     
     441 C0          42.7148     7.8499    26.7867 C0            1 RES     
     442 C0          44.0865     8.5269    26.9055 C0            1 RES     
     443 C0          43.9308     9.9852    27.3325 C0            1 RES     
     444 C0          41.8732     3.2049    28.5548 C0            1 RES     
     445 C0          40.8299     2.2755    29.1517 C0            1 RES     
     446 C0          40.9699     0.8374    28.6508 C0            1 RES     
     447 C0          39.9199    -0.0465    29.3335 C0            1 RES     
     448 C0          40.0236    -1.5038    28.8675 C0            1 RES     
     449 C0          39.0258    -2.4304    29.5831 C0            1 RES     
     450 C0          37.5580    -2.0716    29.3018 C0            1 RES     
     451 C0          36.6130    -3.0599    29.9769 C0            1 RES     
     452 H6          40.4801     5.4849    27.7873 H6            1 RES     
     453 H6          41.0307     6.6110    28.9887 H6            1 RES     
     454 H6          42.0003     4.5369    30.2589 H6            1 RES     
     455 H6          44.0556     4.7213    29.1431 H6            1 RES     
     456 H6          43.3126     6.3380    29.1145 H6            1 RES     
     457 H6          43.6006     4.4153    26.7319 H6            1 RES     
     458 H6          44.6566     5.7754    27.1462 H6            1 RES     
     459 H6          41.7515     5.9992    26.1878 H6            1 RES     
     460 H6          43.2283     6.3713    25.2911 H6            1 RES     
     461 H6          42.2037     7.9207    27.7627 H6            1 RES     
     462 H6          42.1013     8.4144    26.0504 H6            1 RES     
     463 H6          44.7058     8.0087    27.6674 H6            1 RES     
     464 H6          44.6094     8.4894    25.9257 H6            1 RES     
     465 H6          43.3319    10.5456    26.5828 H6            1 RES     
     466 H6          44.9301    10.4606    27.4171 H6            1 RES     
     467 H6          43.4237    10.0469    28.3198 H6            1 RES     
     468 H6          42.8586     2.7340    28.7694 H6            1 RES     
     469 H6          41.7423     3.2505    27.4519 H6            1 RES     
     470 H6          40.9747     2.2557    30.2502 H6            1 RES     
     471 H6          39.8280     2.6404    28.8724 H6            1 RES     
     472 H6          40.8324     0.8097    27.5482 H6            1 RES     
     473 H6          41.9856     0.4541    28.8982 H6            1 RES     
     474 H6          40.0681    -0.0075    30.4360 H6            1 RES     
     475 H6          38.9161     0.3593    29.0906 H6            1 RES     
     476 H6          39.8625    -1.5598    27.7689 H6            1 RES     
     477 H6          41.0487    -1.8746    29.0886 H6            1 RES     
     478 H6          39.2156    -2.4025    30.6790 H6            1 RES     
     479 H6          39.2129    -3.4664    29.2249 H6            1 RES     
     480 H6          37.3740    -2.0895    28.2058 H6            1 RES     
     481 H6          37.3236    -1.0590    29.6907 H6            1 RES     
     482 H6          35.5619    -2.7770    29.7570 H6            1 RES     
     483 H6          36.7925    -4.0875    29.5955 H6            1 RES     
     484 H6          36.7628    -3.0457    31.0776 H6            1 RES     
     485 C0          40.7060    -2.6330    39.8826 C0            1 RES     
     486 C1          40.1974    -2.3262    38.4682 C1            1 RES     
     487 C1          39.6070    -3.3887    37.8773 C1            1 RES     
     488 S2          39.0356    -3.0305    36.3474 S2            1 RES     
     489 C1          39.5645    -1.4114    36.4434 C1            1 RES     
     490 C1          40.1810    -1.1755    37.6776 C1            1 RES     
     491 C1          39.6628    -4.4830    38.7774 C1            1 RES     
     492 C1          40.3093    -4.1139    39.9218 C1            1 RES     
     493 C1          40.4295    -5.1664    40.8350 C1            1 RES     
     494 C1          39.8528    -6.3591    40.3278 C1            1 RES     
     495 S2          39.1771    -6.0691    38.7871 S2            1 RES     
     496 H3          40.5933    -0.2233    37.9810 H3            1 RES     
     497 H3          40.9166    -5.0616    41.7928 H3            1 RES     
     498 N4          38.8866    -9.9316    41.0496 N4            1 RES     
     499 C1          38.9046    -8.6758    40.5184 C1            1 RES     
     500 C1          39.8430    -7.7101    40.9506 C1            1 RES     
     501 C1          40.7654    -8.1087    41.9349 C1            1 RES     
     502 N4          41.7587    -7.3243    42.4244 N4            1 RES     
     503 S2          42.5250    -8.3327    43.4864 S2            1 RES     
     504 N4          41.6727    -9.7428    43.3748 N4            1 RES     
     505 C1          40.7281    -9.4339    42.4539 C1            1 RES     
     506 C1          39.7712   -10.3322    42.0012 C1            1 RES     
     507 H5          38.1696    -8.4334    39.7630 H5            1 RES     
     508 C0          39.7668    -1.7623    40.8022 C0            1 RES     
     509 C0          39.5935    -1.8152    42.3611 C0            1 RES     
     510 C0          38.2115    -1.1741    42.7511 C0            1 RES     
     511 C0          38.0304     0.3729    42.7368 C0            1 RES     
     512 C0          38.0929     1.1267    41.3920 C0            1 RES     
     513 C0          37.1146     0.6363    40.3073 C0            1 RES     
     514 C0          35.6411     0.7928    40.7054 C0            1 RES     
     515 C0          34.7217     0.3448    39.5713 C0            1 RES     
     516 C0          40.6917    -1.1291    43.2229 C0            1 RES     
     517 C0          41.9139    -1.9868    43.5375 C0            1 RES     
     518 C0          42.9761    -1.1611    44.2865 C0            1 RES     
     519 C0          44.2475    -1.9768    44.5691 C0            1 RES     
     520 C0          45.3697    -1.0674    45.0992 C0            1 RES     
     521 C0          46.7341    -1.7712    45.2197 C0            1 RES     
     522 C0          47.3169    -2.1701    43.8491 C0            1 RES     
     523 C0          48.7181    -2.7579    43.9822 C0            1 RES     
     524 H6          39.9406    -0.7168    40.5113 H6            1 RES     
     525 H6          38.7556    -2.0517    40.4402 H6            1 RES     
     526 H6          39.4872    -2.8819    42.6597 H6            1 RES     
     527 H6          38.0261    -1.4682    43.8088 H6            1 RES     
     528 H6          37.3916    -1.6483    42.1700 H6            1 RES     
     529 H6          38.7721     0.8362    43.4209 H6            1 RES     
     530 H6          37.0339     0.5792    43.1819 H6            1 RES     
     531 H6          39.1223     1.1092    40.9978 H6            1 RES     
     532 H6          37.8818     2.2001    41.5911 H6            1 RES     
     533 H6          37.3166    -0.4204    40.0527 H6            1 RES     
     534 H6          37.2973     1.2420    39.3925 H6            1 RES     
     535 H6          35.4159     0.1764    41.6002 H6            1 RES     
     536 H6          35.4307     1.8593    40.9378 H6            1 RES     
     537 H6          34.9050     0.9538    38.6603 H6            1 RES     
     538 H6          33.6621     0.4733    39.8770 H6            1 RES     
     539 H6          34.8964    -0.7266    39.3339 H6            1 RES     
     540 H6          40.2759    -0.8948    44.2289 H6            1 RES     
     541 H6          40.9709    -0.1655    42.7425 H6            1 RES     
     542 H6          41.6117    -2.8716    44.1391 H6            1 RES     
     543 H6          42.3366    -2.3370    42.6057 H6            1 RES     
     544 H6          43.2459    -0.3003    43.6344 H6            1 RES     
     545 H6          42.5682    -0.7653    45.2421 H6            1 RES     
     546 H6          44.0363    -2.7979    45.2876 H6            1 RES     
     547 H6          44.5736    -2.4409    43.6302 H6            1 RES     
     548 H6          45.5013    -0.1932    44.4234 H6            1 RES     
     549 H6          45.0665    -0.6834    46.0981 H6            1 RES     
     550 H6          46.6489    -2.6607    45.8797 H6            1 RES     
     551 H6          47.4372    -1.0509    45.6922 H6            1 RES     
     552 H6          47.3756    -1.2721    43.1949 H6            1 RES     
     553 H6          46.6806    -2.9303    43.3589 H6            1 RES     
     554 H6          49.1033    -3.0244    42.9768 H6            1 RES     
     555 H6          49.4069    -2.0168    44.4413 H6            1 RES     
     556 H6          48.6928    -3.6754    44.6098 H6            1 RES     
     557 C0          42.2389    -2.2412    39.9006 C0            1 RES     
     558 C0          43.4043    -3.1776    40.3631 C0            1 RES     
     559 C0          44.6044    -2.3262    40.9058 C0            1 RES     
     560 C0          45.5373    -1.5471    39.9461 C0            1 RES     
     561 C0          44.9637    -0.3117    39.2226 C0            1 RES     
     562 C0          44.3565     0.7770    40.1324 C0            1 RES     
     563 C0          45.3434     1.3583    41.1531 C0            1 RES     
     564 C0          44.6795     2.4618    41.9744 C0            1 RES     
     565 C0          43.9745    -4.1833    39.3202 C0            1 RES     
     566 C0          43.0306    -5.3058    38.9231 C0            1 RES     
     567 C0          43.7074    -6.3583    38.0441 C0            1 RES     
     568 C0          42.7103    -7.4791    37.7286 C0            1 RES     
     569 C0          43.3451    -8.5653    36.8520 C0            1 RES     
     570 C0          42.3898    -9.7379    36.5712 C0            1 RES     
     571 C0          41.1416    -9.3243    35.7754 C0            1 RES     
     572 C0          40.2643   -10.5323    35.4648 C0            1 RES     
     573 H6          42.5414    -1.8352    38.9197 H6            1 RES     
     574 H6          42.2447    -1.3618    40.5636 H6            1 RES     
     575 H6          43.0455    -3.7633    41.2319 H6            1 RES     
     576 H6          45.2710    -3.0475    41.4267 H6            1 RES     
     577 H6          44.2497    -1.6100    41.6661 H6            1 RES     
     578 H6          45.9699    -2.2403    39.1963 H6            1 RES     
     579 H6          46.3933    -1.1909    40.5587 H6            1 RES     
     580 H6          44.2090    -0.6242    38.4812 H6            1 RES     
     581 H6          45.7914     0.1467    38.6390 H6            1 RES     
     582 H6          43.4787     0.3871    40.6768 H6            1 RES     
     583 H6          43.9989     1.5993    39.4741 H6            1 RES     
     584 H6          45.6842     0.5658    41.8520 H6            1 RES     
     585 H6          46.2252     1.7798    40.6243 H6            1 RES     
     586 H6          44.3414     3.2869    41.3112 H6            1 RES     
     587 H6          45.4037     2.8703    42.7096 H6            1 RES     
     588 H6          43.8027     2.0588    42.5261 H6            1 RES     
     589 H6          44.8563    -4.6777    39.7860 H6            1 RES     
     590 H6          44.3176    -3.6469    38.4091 H6            1 RES     
     591 H6          42.6954    -5.8169    39.8475 H6            1 RES     
     592 H6          42.1871    -4.8769    38.3578 H6            1 RES     
     593 H6          44.0620    -5.8876    37.1017 H6            1 RES     
     594 H6          44.5808    -6.7887    38.5841 H6            1 RES     
     595 H6          42.3624    -7.9395    38.6805 H6            1 RES     
     596 H6          41.8400    -7.0303    37.2067 H6            1 RES     
     597 H6          43.6841    -8.1222    35.8903 H6            1 RES     
     598 H6          44.2350    -8.9725    37.3807 H6            1 RES     
     599 H6          42.0837   -10.2042    37.5338 H6            1 RES     
     600 H6          42.9515   -10.4954    35.9819 H6            1 RES     
     601 H6          41.4504    -8.8488    34.8194 H6            1 RES     
     602 H6          40.5311    -8.6026    36.3567 H6            1 RES     
     603 H6          39.3721   -10.2047    34.8904 H6            1 RES     
     604 H6          40.8273   -11.2720    34.8569 H6            1 RES     
     605 H6          39.9245   -11.0140    36.4065 H6            1 RES     
     606 C0          39.5332   -14.5376    45.3886 C0            1 RES     
     607 C1          39.6164   -13.6361    44.1501 C1            1 RES     
     608 C1          39.6040   -14.3297    42.9903 C1            1 RES     
     609 S2          39.6691   -13.3315    41.6506 S2            1 RES     
     610 C1          39.7056   -11.9193    42.6069 C1            1 RES     
     611 C1          39.6642   -12.2530    43.9655 C1            1 RES     
     612 C1          39.5307   -15.7111    43.3017 C1            1 RES     
     613 C1          39.5219   -15.8848    44.6559 C1            1 RES     
     614 C1          39.4894   -17.2334    45.0250 C1            1 RES     
     615 C1          39.4844   -18.0807    43.8872 C1            1 RES     
     616 S2          39.4792   -17.1408    42.4620 S2            1 RES     
     617 H3          39.6693   -11.5317    44.7708 H3            1 RES     
     618 H3          39.4834   -17.5620    46.0534 H3            1 RES     
     619 N4          39.1829   -21.6144    42.6070 N4            1 RES     
     620 C1          39.1257   -20.2542    42.6830 C1            1 RES     
     621 C1          39.5326   -19.5671    43.8503 C1            1 RES     
     622 C1          40.0153   -20.3465    44.9171 C1            1 RES     
     623 N4          40.4887   -19.8458    46.0861 N4            1 RES     
     624 S2          40.9470   -21.2077    46.9030 S2            1 RES     
     625 N4          40.5850   -22.4340    45.8577 N4            1 RES     
     626 C1          40.0773   -21.7637    44.7954 C1            1 RES     
     627 C1          39.6470   -22.3817    43.6291 C1            1 RES     
     628 H5          38.7467   -19.7132    41.8268 H5            1 RES     
     629 C0          38.1153   -14.1985    45.9889 C0            1 RES     
     630 C0          37.3146   -14.9546    47.1071 C0            1 RES     
     631 C0          35.7892   -14.5908    46.9884 C0            1 RES     
     632 C0          35.2694   -13.2092    47.4853 C0            1 RES     
     633 C0          35.7157   -11.9275    46.7514 C0            1 RES     
     634 C0          35.4382   -11.8966    45.2361 C0            1 RES     
     635 C0          33.9446   -11.9707    44.8925 C0            1 RES     
     636 C0          33.7294   -11.8784    43.3834 C0            1 RES     
     637 C0          37.7450   -14.7075    48.5813 C0            1 RES     
     638 C0          38.8832   -15.5866    49.0915 C0            1 RES     
     639 C0          39.2969   -15.1648    50.5135 C0            1 RES     
     640 C0          40.4815   -15.9909    51.0388 C0            1 RES     
     641 C0          41.0207   -15.3941    52.3505 C0            1 RES     
     642 C0          42.3289   -16.0450    52.8369 C0            1 RES     
     643 C0          43.5147   -15.7676    51.8913 C0            1 RES     
     644 C0          44.8221   -16.3199    52.4502 C0            1 RES     
     645 H6          38.1421   -13.1308    46.2482 H6            1 RES     
     646 H6          37.4543   -14.3160    45.1020 H6            1 RES     
     647 H6          37.3485   -16.0431    46.8786 H6            1 RES     
     648 H6          35.2481   -15.3356    47.6146 H6            1 RES     
     649 H6          35.4324   -14.7696    45.9514 H6            1 RES     
     650 H6          35.5169   -13.0885    48.5610 H6            1 RES     
     651 H6          34.1608   -13.2493    47.4296 H6            1 RES     
     652 H6          36.7866   -11.7414    46.9358 H6            1 RES     
     653 H6          35.1917   -11.0653    47.2186 H6            1 RES     
     654 H6          35.9739   -12.7191    44.7274 H6            1 RES     
     655 H6          35.8422   -10.9388    44.8407 H6            1 RES     
     656 H6          33.5145   -12.9301    45.2475 H6            1 RES     
     657 H6          33.4087   -11.1297    45.3835 H6            1 RES     
     658 H6          34.1315   -10.9192    42.9926 H6            1 RES     
     659 H6          32.6433   -11.9262    43.1578 H6            1 RES     
     660 H6          34.2374   -12.7223    42.8693 H6            1 RES     
     661 H6          36.8990   -14.9630    49.2586 H6            1 RES     
     662 H6          37.9640   -13.6246    48.7115 H6            1 RES     
     663 H6          38.5741   -16.6544    49.0756 H6            1 RES     
     664 H6          39.7313   -15.4678    48.4311 H6            1 RES     
     665 H6          39.6048   -14.0962    50.4649 H6            1 RES     
     666 H6          38.4408   -15.2533    51.2174 H6            1 RES     
     667 H6          40.1872   -17.0527    51.1833 H6            1 RES     
     668 H6          41.2753   -15.9727    50.2820 H6            1 RES     
     669 H6          41.2149   -14.3061    52.2212 H6            1 RES     
     670 H6          40.2404   -15.5104    53.1346 H6            1 RES     
     671 H6          42.1857   -17.1385    52.9704 H6            1 RES     
     672 H6          42.5714   -15.6004    53.8268 H6            1 RES     
     673 H6          43.6303   -14.6697    51.7527 H6            1 RES     
     674 H6          43.3477   -16.2383    50.9046 H6            1 RES     
     675 H6          45.6488   -16.0940    51.7461 H6            1 RES     
     676 H6          45.0529   -15.8510    53.4307 H6            1 RES     
     677 H6          44.7516   -17.4223    52.5767 H6            1 RES     
     678 C0          40.7716   -14.1614    46.2988 C0            1 RES     
     679 C0          41.8160   -15.1789    46.8670 C0            1 RES     
     680 C0          42.4316   -14.6377    48.2042 C0            1 RES     
     681 C0          43.4690   -13.4878    48.2050 C0            1 RES     
     682 C0          42.9814   -12.0722    47.8347 C0            1 RES     
     683 C0          41.8058   -11.5268    48.6728 C0            1 RES     
     684 C0          42.0966   -11.4475    50.1772 C0            1 RES     
     685 C0          40.9056   -10.8501    50.9240 C0            1 RES     
     686 C0          42.9960   -15.5910    45.9386 C0            1 RES     
     687 C0          42.6066   -16.4338    44.7358 C0            1 RES     
     688 C0          43.8213   -16.9593    43.9696 C0            1 RES     
     689 C0          43.3505   -17.8387    42.8056 C0            1 RES     
     690 C0          44.5355   -18.3963    42.0079 C0            1 RES     
     691 C0          44.0988   -19.3367    40.8716 C0            1 RES     
     692 C0          43.2478   -18.6365    39.8000 C0            1 RES     
     693 C0          42.9004   -19.5932    38.6644 C0            1 RES     
     694 H6          41.3559   -13.3490    45.8328 H6            1 RES     
     695 H6          40.2862   -13.6770    47.1605 H6            1 RES     
     696 H6          41.2729   -16.1022    47.1485 H6            1 RES     
     697 H6          42.9644   -15.5012    48.6587 H6            1 RES     
     698 H6          41.6288   -14.3511    48.9042 H6            1 RES     
     699 H6          44.3300   -13.7570    47.5600 H6            1 RES     
     700 H6          43.8721   -13.4277    49.2388 H6            1 RES     
     701 H6          42.7111   -12.0328    46.7660 H6            1 RES     
     702 H6          43.8433   -11.3807    47.9560 H6            1 RES     
     703 H6          40.9005   -12.1407    48.5230 H6            1 RES     
     704 H6          41.5774   -10.5041    48.2996 H6            1 RES     
     705 H6          42.2859   -12.4624    50.5856 H6            1 RES     
     706 H6          42.9913   -10.8124    50.3534 H6            1 RES     
     707 H6          40.6956    -9.8223    50.5574 H6            1 RES     
     708 H6          41.1290   -10.8018    52.0100 H6            1 RES     
     709 H6          40.0011   -11.4789    50.7753 H6            1 RES     
     710 H6          43.6861   -16.2223    46.5420 H6            1 RES     
     711 H6          43.5550   -14.6928    45.5974 H6            1 RES     
     712 H6          42.0428   -17.3152    45.1010 H6            1 RES     
     713 H6          42.0078   -15.8150    44.0476 H6            1 RES     
     714 H6          44.4193   -16.1053    43.5842 H6            1 RES     
     715 H6          44.4574   -17.5673    44.6518 H6            1 RES     
     716 H6          42.7519   -18.6876    43.2057 H6            1 RES     
     717 H6          42.7051   -17.2224    42.1462 H6            1 RES     
     718 H6          45.1346   -17.5586    41.5891 H6            1 RES     
     719 H6          45.1852   -18.9782    42.6982 H6            1 RES     
     720 H6          43.5336   -20.1947    41.2981 H6            1 RES     
     721 H6          45.0198   -19.7328    40.3904 H6            1 RES     
     722 H6          43.8105   -17.7732    39.3835 H6            1 RES     
     723 H6          42.2961   -18.2699    40.2374 H6            1 RES     
     724 H6          42.2869   -19.0617    37.9066 H6            1 RES     
     725 H6          43.8262   -19.9650    38.1762 H6            1 RES     
     726 H6          42.3182   -20.4562    39.0524 H6            1 RES     
     727 C0          39.0005   -27.6686    44.5498 C0            1 RES     
     728 C1          39.3847   -26.3029    43.9662 C1            1 RES     
     729 C1          40.0312   -26.3971    42.7831 C1            1 RES     
     730 S2          40.4196   -24.8998    42.1485 S2            1 RES     
     731 C1          39.7098   -24.0722    43.4606 C1            1 RES     
     732 C1          39.1761   -24.9851    44.3776 C1            1 RES     
     733 C1          40.1632   -27.7713    42.4594 C1            1 RES     
     734 C1          39.6219   -28.5387    43.4504 C1            1 RES     
     735 C1          39.7574   -29.9088    43.2044 C1            1 RES     
     736 C1          40.4374   -30.1499    41.9830 C1            1 RES     
     737 S2          40.8146   -28.6675    41.2248 S2            1 RES     
     738 H3          38.6672   -24.7060    45.2897 H3            1 RES     
     739 H3          39.3936   -30.6670    43.8815 H3            1 RES     
     740 N4          41.5575   -32.7286    39.4705 N4            1 RES     
     741 C1          41.1519   -31.5515    40.0265 C1            1 RES     
     742 C1          40.8485   -31.4575    41.4046 C1            1 RES     
     743 C1          41.0025   -32.6238    42.1756 C1            1 RES     
     744 N4          40.8008   -32.6952    43.5157 N4            1 RES     
     745 S2          41.1781   -34.2683    43.8544 S2            1 RES     
     746 N4          41.5970   -34.8973    42.3859 N4            1 RES     
     747 C1          41.4452   -33.8310    41.5642 C1            1 RES     
     748 C1          41.7114   -33.8644    40.2020 C1            1 RES     
     749 H5          41.0557   -30.6906    39.3791 H5            1 RES     
     750 C0          37.4263   -27.6701    44.4622 C0            1 RES     
     751 C0          36.4318   -28.8682    44.6588 C0            1 RES     
     752 C0          35.0630   -28.5250    43.9645 C0            1 RES     
     753 C0          34.0695   -27.5297    44.6340 C0            1 RES     
     754 C0          34.4664   -26.0448    44.7692 C0            1 RES     
     755 C0          34.8599   -25.3384    43.4577 C0            1 RES     
     756 C0          33.7186   -25.2832    42.4336 C0            1 RES     
     757 C0          34.1493   -24.5233    41.1809 C0            1 RES     
     758 C0          36.1232   -29.3047    46.1195 C0            1 RES     
     759 C0          37.1098   -30.2932    46.7342 C0            1 RES     
     760 C0          36.7673   -30.5507    48.2132 C0            1 RES     
     761 C0          37.7756   -31.4978    48.8826 C0            1 RES     
     762 C0          37.5479   -31.5465    50.4035 C0            1 RES     
     763 C0          38.6390   -32.3169    51.1700 C0            1 RES     
     764 C0          40.0105   -31.6149    51.1116 C0            1 RES     
     765 C0          41.0468   -32.3303    51.9726 C0            1 RES     
     766 H6          37.0859   -26.8348    45.0901 H6            1 RES     
     767 H6          37.2532   -27.3889    43.4000 H6            1 RES     
     768 H6          36.8171   -29.7346    44.0765 H6            1 RES     
     769 H6          34.5015   -29.4845    43.9057 H6            1 RES     
     770 H6          35.2341   -28.2236    42.9087 H6            1 RES     
     771 H6          33.8004   -27.9028    45.6446 H6            1 RES     
     772 H6          33.1342   -27.5655    44.0361 H6            1 RES     
     773 H6          35.2795   -25.9377    45.5061 H6            1 RES     
     774 H6          33.6053   -25.4992    45.2133 H6            1 RES     
     775 H6          35.7394   -25.8294    43.0020 H6            1 RES     
     776 H6          35.1531   -24.2963    43.7130 H6            1 RES     
     777 H6          33.4201   -26.3089    42.1333 H6            1 RES     
     778 H6          32.8420   -24.7676    42.8824 H6            1 RES     
     779 H6          34.4385   -23.4822    41.4394 H6            1 RES     
     780 H6          33.3076   -24.4888    40.4577 H6            1 RES     
     781 H6          35.0119   -25.0317    40.6993 H6            1 RES     
     782 H6          35.1573   -29.8581    46.1412 H6            1 RES     
     783 H6          36.0018   -28.3930    46.7454 H6            1 RES     
     784 H6          37.1004   -31.2452    46.1599 H6            1 RES     
     785 H6          38.1029   -29.8693    46.6741 H6            1 RES     
     786 H6          36.8030   -29.5689    48.7365 H6            1 RES     
     787 H6          35.7416   -30.9675    48.3151 H6            1 RES     
     788 H6          37.7095   -32.5166    48.4437 H6            1 RES     
     789 H6          38.7861   -31.1211    48.6818 H6            1 RES     
     790 H6          37.5139   -30.5135    50.8157 H6            1 RES     
     791 H6          36.5610   -32.0225    50.5946 H6            1 RES     
     792 H6          38.7171   -33.3556    50.7837 H6            1 RES     
     793 H6          38.3249   -32.3626    52.2357 H6            1 RES     
     794 H6          39.9094   -30.5707    51.4821 H6            1 RES     
     795 H6          40.3954   -31.5922    50.0750 H6            1 RES     
     796 H6          42.0142   -31.7916    51.9091 H6            1 RES     
     797 H6          40.7206   -32.3503    53.0345 H6            1 RES     
     798 H6          41.1935   -33.3720    51.6126 H6            1 RES     
     799 C0          39.6066   -27.7165    46.0106 C0            1 RES     
     800 C0          40.5196   -28.8568    46.5718 C0            1 RES     
     801 C0          40.3611   -28.9649    48.1284 C0            1 RES     
     802 C0          40.9938   -27.9163    49.0764 C0            1 RES     
     803 C0          40.3885   -26.4978    49.0945 C0            1 RES     
     804 C0          38.8760   -26.4173    49.3908 C0            1 RES     
     805 C0          38.4725   -27.0203    50.7426 C0            1 RES     
     806 C0          36.9729   -26.8525    50.9797 C0            1 RES     
     807 C0          42.0426   -28.7775    46.2582 C0            1 RES     
     808 C0          42.4134   -28.9939    44.8007 C0            1 RES     
     809 C0          43.9248   -29.0883    44.5876 C0            1 RES     
     810 C0          44.2167   -29.3568    43.1069 C0            1 RES     
     811 C0          45.7232   -29.4662    42.8422 C0            1 RES     
     812 C0          46.0476   -29.8008    41.3762 C0            1 RES     
     813 C0          45.5927   -28.7114    40.3919 C0            1 RES     
     814 C0          45.9987   -29.0588    38.9637 C0            1 RES     
     815 H6          40.1217   -26.7681    46.2422 H6            1 RES     
     816 H6          38.7015   -27.6853    46.6373 H6            1 RES     
     817 H6          40.1451   -29.8197    46.1728 H6            1 RES     
     818 H6          40.8388   -29.9282    48.4112 H6            1 RES     
     819 H6          39.2944   -29.0442    48.3977 H6            1 RES     
     820 H6          42.0838   -27.8450    48.8852 H6            1 RES     
     821 H6          40.8927   -28.3210    50.1064 H6            1 RES     
     822 H6          40.5967   -25.9856    48.1400 H6            1 RES     
     823 H6          40.9257   -25.9164    49.8750 H6            1 RES     
     824 H6          38.2946   -26.9176    48.5967 H6            1 RES     
     825 H6          38.5919   -25.3419    49.3811 H6            1 RES     
     826 H6          38.7057   -28.1055    50.7639 H6            1 RES     
     827 H6          39.0284   -26.5132    51.5604 H6            1 RES     
     828 H6          36.7008   -25.7751    50.9862 H6            1 RES     
     829 H6          36.6956   -27.2955    51.9588 H6            1 RES     
     830 H6          36.3953   -27.3666    50.1812 H6            1 RES     
     831 H6          42.5394   -29.5975    46.8236 H6            1 RES     
     832 H6          42.4624   -27.8096    46.6084 H6            1 RES     
     833 H6          41.9753   -29.9578    44.4736 H6            1 RES     
     834 H6          42.0354   -28.1447    44.2084 H6            1 RES     
     835 H6          44.4079   -28.1389    44.9050 H6            1 RES     
     836 H6          44.3354   -29.9244    45.1976 H6            1 RES     
     837 H6          43.7256   -30.3083    42.8027 H6            1 RES     
     838 H6          43.7863   -28.5238    42.5134 H6            1 RES     
     839 H6          46.2253   -28.5162    43.1277 H6            1 RES     
     840 H6          46.1360   -30.2823    43.4752 H6            1 RES     
     841 H6          45.5767   -30.7716    41.1054 H6            1 RES     
     842 H6          47.1507   -29.9153    41.2938 H6            1 RES     
     843 H6          46.0559   -27.7404    40.6714 H6            1 RES     
     844 H6          44.4884   -28.6040    40.4138 H6            1 RES     
     845 H6          45.6581   -28.2562    38.2759 H6            1 RES     
     846 H6          47.1031   -29.1484    38.8874 H6            1 RES     
     847 H6          45.5305   -30.0170    38.6524 H6            1 RES     
     848 C0          42.0122   -39.0094    38.5726 C0            1 RES     
     849 C1          42.2711   -37.5190    38.8279 C1            1 RES     
     850 C1          43.3605   -37.0533    38.1778 C1            1 RES     
     851 S2          43.6134   -35.4225    38.4458 S2            1 RES     
     852 C1          42.2395   -35.2941    39.4490 C1            1 RES     
     853 C1          41.6009   -36.5348    39.5571 C1            1 RES     
     854 C1          43.9400   -38.1292    37.4585 C1            1 RES     
     855 C1          43.2287   -39.2739    37.6770 C1            1 RES     
     856 C1          43.7772   -40.3812    37.0218 C1            1 RES     
     857 C1          44.9471   -40.0283    36.3014 C1            1 RES     
     858 S2          45.2462   -38.3551    36.4612 S2            1 RES     
     859 H3          40.7028   -36.7101    40.1327 H3            1 RES     
     860 H3          43.3520   -41.3717    37.0840 H3            1 RES     
     861 N4          47.6053   -41.1659    33.8812 N4            1 RES     
     862 C1          46.7351   -40.3770    34.5739 C1            1 RES     
     863 C1          45.8626   -40.9232    35.5437 C1            1 RES     
     864 C1          45.9470   -42.3083    35.7738 C1            1 RES     
     865 N4          45.2189   -42.9825    36.6994 N4            1 RES     
     866 S2          45.7786   -44.5297    36.5422 S2            1 RES     
     867 N4          46.9175   -44.4170    35.3516 N4            1 RES     
     868 C1          46.8803   -43.0980    35.0442 C1            1 RES     
     869 C1          47.6991   -42.5058    34.0922 C1            1 RES     
     870 H5          46.7213   -39.3188    34.3511 H5            1 RES     
     871 C0          40.6745   -39.0071    37.7382 C0            1 RES     
     872 C0          40.0069   -40.1869    36.9474 C0            1 RES     
     873 C0          39.0243   -39.5982    35.8698 C0            1 RES     
     874 C0          37.6356   -39.0362    36.2957 C0            1 RES     
     875 C0          37.5720   -37.7643    37.1668 C0            1 RES     
     876 C0          38.3047   -36.5324    36.6016 C0            1 RES     
     877 C0          37.7292   -36.0461    35.2649 C0            1 RES     
     878 C0          38.4567   -34.7924    34.7844 C0            1 RES     
     879 C0          39.2209   -41.2437    37.7750 C0            1 RES     
     880 C0          40.0569   -42.3805    38.3557 C0            1 RES     
     881 C0          39.1910   -43.2867    39.2501 C0            1 RES     
     882 C0          40.0128   -44.4108    39.9003 C0            1 RES     
     883 C0          39.1797   -45.1472    40.9639 C0            1 RES     
     884 C0          39.9906   -46.1558    41.7985 C0            1 RES     
     885 C0          41.0468   -45.4722    42.6897 C0            1 RES     
     886 C0          41.7566   -46.4757    43.5931 C0            1 RES     
     887 H6          39.9120   -38.5540    38.3872 H6            1 RES     
     888 H6          40.9075   -38.2800    36.9293 H6            1 RES     
     889 H6          40.7967   -40.6874    36.3440 H6            1 RES     
     890 H6          38.7868   -40.4400    35.1810 H6            1 RES     
     891 H6          39.5504   -38.8481    35.2410 H6            1 RES     
     892 H6          37.0601   -39.8320    36.8137 H6            1 RES     
     893 H6          37.0808   -38.8191    35.3583 H6            1 RES     
     894 H6          37.9440   -37.9835    38.1812 H6            1 RES     
     895 H6          36.5015   -37.4984    37.3069 H6            1 RES     
     896 H6          39.3832   -36.7441    36.4823 H6            1 RES     
     897 H6          38.2047   -35.7120    37.3459 H6            1 RES     
     898 H6          37.8397   -36.8318    34.4890 H6            1 RES     
     899 H6          36.6502   -35.8094    35.3896 H6            1 RES     
     900 H6          38.3522   -33.9744    35.5290 H6            1 RES     
     901 H6          38.0202   -34.4537    33.8213 H6            1 RES     
     902 H6          39.5356   -35.0082    34.6300 H6            1 RES     
     903 H6          38.4994   -41.7690    37.1093 H6            1 RES     
     904 H6          38.6325   -40.7166    38.5582 H6            1 RES     
     905 H6          40.5187   -42.9698    37.5338 H6            1 RES     
     906 H6          40.8493   -41.9527    38.9546 H6            1 RES     
     907 H6          38.7667   -42.6472    40.0563 H6            1 RES     
     908 H6          38.3507   -43.7278    38.6709 H6            1 RES     
     909 H6          40.3835   -45.1222    39.1312 H6            1 RES     
     910 H6          40.8913   -43.9612    40.3790 H6            1 RES     
     911 H6          38.7294   -44.4133    41.6687 H6            1 RES     
     912 H6          38.3495   -45.6806    40.4506 H6            1 RES     
     913 H6          40.4698   -46.9055    41.1332 H6            1 RES     
     914 H6          39.2746   -46.6857    42.4642 H6            1 RES     
     915 H6          40.5529   -44.7110    43.3337 H6            1 RES     
     916 H6          41.8177   -44.9745    42.0725 H6            1 RES     
     917 H6          42.5008   -45.9446    44.2211 H6            1 RES     
     918 H6          41.0256   -46.9812    44.2598 H6            1 RES     
     919 H6          42.2852   -47.2384    42.9806 H6            1 RES     
     920 C0          41.9329   -39.6988    39.9946 C0            1 RES     
     921 C0          42.7634   -40.9485    40.4391 C0            1 RES     
     922 C0          41.9898   -41.7524    41.5414 C0            1 RES     
     923 C0          41.8908   -41.2317    42.9966 C0            1 RES     
     924 C0          41.0171   -39.9889    43.2632 C0            1 RES     
     925 C0          39.5509   -40.0856    42.7916 C0            1 RES     
     926 C0          38.7677   -41.2438    43.4234 C0            1 RES     
     927 C0          37.3171   -41.2356    42.9453 C0            1 RES     
     928 C0          44.2082   -40.7012    40.9639 C0            1 RES     
     929 C0          45.2024   -40.2267    39.9175 C0            1 RES     
     930 C0          46.6358   -40.1799    40.4486 C0            1 RES     
     931 C0          47.5833   -39.7431    39.3255 C0            1 RES     
     932 C0          49.0378   -39.6866    39.8078 C0            1 RES     
     933 C0          50.0231   -39.3145    38.6867 C0            1 RES     
     934 C0          49.7846   -37.9085    38.1133 C0            1 RES     
     935 C0          50.8282   -37.5632    37.0565 C0            1 RES     
     936 H6          42.0593   -38.9462    40.7921 H6            1 RES     
     937 H6          40.8688   -39.9751    40.0583 H6            1 RES     
     938 H6          42.8345   -41.6352    39.5730 H6            1 RES     
     939 H6          42.5160   -42.7282    41.6242 H6            1 RES     
     940 H6          40.9623   -41.9692    41.2037 H6            1 RES     
     941 H6          42.9073   -41.0568    43.4039 H6            1 RES     
     942 H6          41.4613   -42.0606    43.5995 H6            1 RES     
     943 H6          41.4825   -39.0958    42.8131 H6            1 RES     
     944 H6          41.0169   -39.8112    44.3606 H6            1 RES     
     945 H6          39.4990   -40.1859    41.6933 H6            1 RES     
     946 H6          39.0511   -39.1289    43.0603 H6            1 RES     
     947 H6          39.2203   -42.2157    43.1353 H6            1 RES     
     948 H6          38.7856   -41.1488    44.5305 H6            1 RES     
     949 H6          36.8205   -40.2842    43.2333 H6            1 RES     
     950 H6          36.7644   -42.0797    43.4078 H6            1 RES     
     951 H6          37.2736   -41.3461    41.8401 H6            1 RES     
     952 H6          44.5971   -41.6767    41.3329 H6            1 RES     
     953 H6          44.1963   -39.9870    41.8156 H6            1 RES     
     954 H6          45.1877   -40.9481    39.0765 H6            1 RES     
     955 H6          44.9218   -39.2102    39.5964 H6            1 RES     
     956 H6          46.6974   -39.4659    41.2982 H6            1 RES     
     957 H6          46.9342   -41.1919    40.8043 H6            1 RES     
     958 H6          47.5095   -40.4651    38.4815 H6            1 RES     
     959 H6          47.2612   -38.7419    38.9718 H6            1 RES     
     960 H6          49.1294   -38.9572    40.6419 H6            1 RES     
     961 H6          49.3237   -40.6911    40.1905 H6            1 RES     
     962 H6          49.9574   -40.0685    37.8713 H6            1 RES     
     963 H6          51.0490   -39.3542    39.1140 H6            1 RES     
     964 H6          49.8399   -37.1586    38.9319 H6            1 RES     
     965 H6          48.7850   -37.8478    37.6352 H6            1 RES     
     966 H6          50.6320   -36.5443    36.6608 H6            1 RES     
     967 H6          51.8468   -37.5833    37.4989 H6            1 RES     
     968 H6          50.7791   -38.2875    36.2155 H6            1 RES     
     969 C0          49.8766   -46.3495    30.9776 C0            1 RES     
     970 C1          49.6401   -45.1302    31.8780 C1            1 RES     
     971 C1          50.7572   -44.3961    32.0770 C1            1 RES     
     972 S2          50.4768   -43.0575    33.0386 S2            1 RES     
     973 C1          48.8201   -43.4280    33.2072 C1            1 RES     
     974 C1          48.5112   -44.5977    32.5035 C1            1 RES     
     975 C1          51.8246   -45.0169    31.3798 C1            1 RES     
     976 C1          51.3825   -46.1526    30.7644 C1            1 RES     
     977 C1          52.4030   -46.8311    30.0903 C1            1 RES     
     978 C1          53.6471   -46.1640    30.2298 C1            1 RES     
     979 S2          53.4429   -44.7376    31.1453 S2            1 RES     
     980 H3          47.5238   -45.0348    32.4510 H3            1 RES     
     981 H3          52.2406   -47.7521    29.5508 H3            1 RES     
     982 N4          57.2673   -46.0232    29.1850 N4            1 RES     
     983 C1          56.0255   -45.6529    29.6094 C1            1 RES     
     984 C1          54.9813   -46.5984    29.7355 C1            1 RES     
     985 C1          55.2866   -47.9355    29.4233 C1            1 RES     
     986 N4          54.4177   -48.9718    29.5357 N4            1 RES     
     987 S2          55.3413   -50.2675    29.0881 S2            1 RES     
     988 N4          56.8149   -49.6026    28.7512 N4            1 RES     
     989 C1          56.5994   -48.2884    29.0003 C1            1 RES     
     990 C1          57.5782   -47.3112    28.8797 C1            1 RES     
     991 H5          55.8565   -44.6090    29.8357 H5            1 RES     
     992 C0          49.0616   -46.0007    29.6738 C0            1 RES     
     993 C0          49.0946   -46.7103    28.2744 C0            1 RES     
     994 C0          48.5537   -45.7205    27.1784 C0            1 RES     
     995 C0          47.0260   -45.4437    27.0541 C0            1 RES     
     996 C0          46.2983   -44.7051    28.1966 C0            1 RES     
     997 C0          46.8856   -43.3343    28.5841 C0            1 RES     
     998 C0          46.8347   -42.3095    27.4433 C0            1 RES     
     999 C0          47.3763   -40.9577    27.9032 C0            1 RES     
    1000 C0          48.3077   -48.0447    28.1343 C0            1 RES     
    1001 C0          49.0617   -49.3018    28.5580 C0            1 RES     
    1002 C0          48.1409   -50.5341    28.4895 C0            1 RES     
    1003 C0          48.8500   -51.8116    28.9656 C0            1 RES     
    1004 C0          47.8457   -52.9681    29.1113 C0            1 RES     
    1005 C0          48.4395   -54.2264    29.7714 C0            1 RES     
    1006 C0          48.8214   -53.9958    31.2472 C0            1 RES     
    1007 C0          49.2965   -55.2828    31.9141 C0            1 RES     
    1008 H6          48.0122   -45.9076    29.9869 H6            1 RES     
    1009 H6          49.4357   -44.9813    29.4327 H6            1 RES     
    1010 H6          50.1597   -46.8656    27.9921 H6            1 RES     
    1011 H6          48.8387   -46.1650    26.1982 H6            1 RES     
    1012 H6          49.1020   -44.7554    27.2299 H6            1 RES     
    1013 H6          46.4924   -46.4007    26.8740 H6            1 RES     
    1014 H6          46.8877   -44.8390    26.1328 H6            1 RES     
    1015 H6          46.2448   -45.3507    29.0887 H6            1 RES     
    1016 H6          45.2404   -44.5557    27.8887 H6            1 RES     
    1017 H6          47.9288   -43.4445    28.9332 H6            1 RES     
    1018 H6          46.2872   -42.9417    29.4355 H6            1 RES     
    1019 H6          47.4475   -42.6565    26.5857 H6            1 RES     
    1020 H6          45.7829   -42.1793    27.1079 H6            1 RES     
    1021 H6          46.7745   -40.5674    28.7516 H6            1 RES     
    1022 H6          47.3234   -40.2302    27.0661 H6            1 RES     
    1023 H6          48.4358   -41.0556    28.2233 H6            1 RES     
    1024 H6          48.0848   -48.2285    27.0589 H6            1 RES     
    1025 H6          47.3358   -47.9424    28.6657 H6            1 RES     
    1026 H6          49.9542   -49.4451    27.9106 H6            1 RES     
    1027 H6          49.3980   -49.1732    29.5777 H6            1 RES     
    1028 H6          47.2759   -50.3381    29.1620 H6            1 RES     
    1029 H6          47.7575   -50.6846    27.4567 H6            1 RES     
    1030 H6          49.6694   -52.0897    28.2685 H6            1 RES     
    1031 H6          49.3074   -51.6071    29.9415 H6            1 RES     
    1032 H6          46.9786   -52.6428    29.7281 H6            1 RES     
    1033 H6          47.4650   -53.2306    28.0996 H6            1 RES     
    1034 H6          49.3188   -54.5830    29.1935 H6            1 RES     
    1035 H6          47.6573   -55.0161    29.7413 H6            1 RES     
    1036 H6          47.9356   -53.6195    31.8056 H6            1 RES     
    1037 H6          49.6386   -53.2552    31.3296 H6            1 RES     
    1038 H6          49.5537   -55.0762    32.9730 H6            1 RES     
    1039 H6          48.4949   -56.0517    31.8870 H6            1 RES     
    1040 H6          50.1996   -55.6738    31.3966 H6            1 RES     
    1041 C0          49.3675   -47.6091    31.7887 C0            1 RES     
    1042 C0          50.2013   -48.9054    32.0594 C0            1 RES     
    1043 C0          49.2485   -50.1383    32.2383 C0            1 RES     
    1044 C0          48.4205   -50.3343    33.5323 C0            1 RES     
    1045 C0          47.2486   -49.3667    33.7957 C0            1 RES     
    1046 C0          46.1909   -49.2731    32.6759 C0            1 RES     
    1047 C0          45.5137   -50.6094    32.3445 C0            1 RES     
    1048 C0          44.4474   -50.4190    31.2676 C0            1 RES     
    1049 C0          51.1820   -48.8892    33.2687 C0            1 RES     
    1050 C0          52.3821   -47.9702    33.1139 C0            1 RES     
    1051 C0          53.3977   -48.1360    34.2451 C0            1 RES     
    1052 C0          54.5985   -47.2170    33.9930 C0            1 RES     
    1053 C0          55.6510   -47.3515    35.1001 C0            1 RES     
    1054 C0          56.8994   -46.4903    34.8429 C0            1 RES     
    1055 C0          56.6003   -44.9829    34.8191 C0            1 RES     
    1056 C0          57.8786   -44.1732    34.6304 C0            1 RES     
    1057 H6          48.9604   -47.2957    32.7658 H6            1 RES     
    1058 H6          48.4764   -47.9085    31.2150 H6            1 RES     
    1059 H6          50.7943   -49.1244    31.1500 H6            1 RES     
    1060 H6          49.9051   -51.0337    32.1829 H6            1 RES     
    1061 H6          48.5459   -50.2023    31.3905 H6            1 RES     
    1062 H6          49.0941   -50.3393    34.4132 H6            1 RES     
    1063 H6          47.9864   -51.3558    33.4770 H6            1 RES     
    1064 H6          47.6341   -48.3562    34.0130 H6            1 RES     
    1065 H6          46.7403   -49.7045    34.7249 H6            1 RES     
    1066 H6          46.6356   -48.8671    31.7505 H6            1 RES     
    1067 H6          45.4128   -48.5530    33.0124 H6            1 RES     
    1068 H6          46.2625   -51.3353    31.9639 H6            1 RES     
    1069 H6          45.0368   -51.0249    33.2582 H6            1 RES     
    1070 H6          43.6652   -49.7123    31.6188 H6            1 RES     
    1071 H6          43.9688   -51.3933    31.0365 H6            1 RES     
    1072 H6          44.9050   -50.0187    30.3370 H6            1 RES     
    1073 H6          51.5970   -49.9169    33.3711 H6            1 RES     
    1074 H6          50.6402   -48.6378    34.2061 H6            1 RES     
    1075 H6          52.8977   -48.2335    32.1690 H6            1 RES     
    1076 H6          52.0317   -46.9251    33.1173 H6            1 RES     
    1077 H6          52.9212   -47.8821    35.2167 H6            1 RES     
    1078 H6          53.7480   -49.1923    34.2793 H6            1 RES     
    1079 H6          55.0640   -47.4808    33.0169 H6            1 RES     
    1080 H6          54.2294   -46.1717    33.9449 H6            1 RES     
    1081 H6          55.2036   -47.0763    36.0800 H6            1 RES     
    1082 H6          55.9770   -48.4137    35.1521 H6            1 RES     
    1083 H6          57.3674   -46.7953    33.8808 H6            1 RES     
    1084 H6          57.6237   -46.6955    35.6614 H6            1 RES     
    1085 H6          56.1228   -44.6831    35.7770 H6            1 RES     
    1086 H6          55.9156   -44.7353    33.9816 H6            1 RES     
    1087 H6          57.6330   -43.0903    34.6173 H6            1 RES     
    1088 H6          58.5855   -44.3680    35.4647 H6            1 RES     
    1089 H6          58.3649   -44.4399    33.6678 H6            1 RES     
    1090 C0          61.7165   -49.2802    26.0137 C0            1 RES     
    1091 C1          60.8378   -48.6056    27.0749 C1            1 RES     
    1092 C1          61.5548   -48.0156    28.0569 C1            1 RES     
    1093 S2          60.5833   -47.2632    29.1907 S2            1 RES     
    1094 C1          59.1524   -47.7076    28.3750 C1            1 RES     
    1095 C1          59.4593   -48.4395    27.2221 C1            1 RES     
    1096 C1          62.9308   -48.2294    27.7895 C1            1 RES     
    1097 C1          63.0758   -48.9738    26.6543 C1            1 RES     
    1098 C1          64.4148   -49.2507    26.3600 C1            1 RES     
    1099 C1          65.2839   -48.6906    27.3312 C1            1 RES     
    1100 S2          64.3777   -47.8374    28.4998 S2            1 RES     
    1101 H3          58.7229   -48.8279    26.5325 H3            1 RES     
    1102 H3          64.7209   -49.8316    25.5030 H3            1 RES     
    1103 N4          68.8568   -48.0099    28.3254 N4            1 RES     
    1104 C1          67.5037   -47.9000    28.1975 C1            1 RES     
    1105 C1          66.7626   -48.8239    27.4245 C1            1 RES     
    1106 C1          67.4797   -49.8680    26.8128 C1            1 RES     
    1107 N4          66.9193   -50.8626    26.0792 N4            1 RES     
    1108 S2          68.2240   -51.7944    25.6777 S2            1 RES     
    1109 N4          69.4965   -51.0155    26.3859 N4            1 RES     
    1110 C1          68.8902   -49.9614    26.9830 C1            1 RES     
    1111 C1          69.5642   -49.0132    27.7407 C1            1 RES     
    1112 H5          67.0118   -47.0755    28.6952 H5            1 RES     
    1113 C0          61.4751   -48.3982    24.7293 C0            1 RES     
    1114 C0          62.2666   -48.3974    23.3742 C0            1 RES     
    1115 C0          62.0241   -47.0316    22.6331 C0            1 RES     
    1116 C0          60.6765   -46.7635    21.8997 C0            1 RES     
    1117 C0          59.3801   -46.6381    22.7269 C0            1 RES     
    1118 C0          59.4028   -45.5777    23.8446 C0            1 RES     
    1119 C0          59.5991   -44.1492    23.3199 C0            1 RES     
    1120 C0          59.5558   -43.1396    24.4648 C0            1 RES     
    1121 C0          61.9558   -49.5418    22.3676 C0            1 RES     
    1122 C0          62.7335   -50.8370    22.5820 C0            1 RES     
    1123 C0          62.2510   -51.9258    21.6058 C0            1 RES     
    1124 C0          62.9720   -53.2640    21.8317 C0            1 RES     
    1125 C0          62.3076   -54.3840    21.0121 C0            1 RES     
    1126 C0          62.8452   -55.7908    21.3336 C0            1 RES     
    1127 C0          62.4975   -56.2438    22.7657 C0            1 RES     
    1128 C0          62.9353   -57.6820    23.0237 C0            1 RES     
    1129 H6          60.4032   -48.4807    24.5008 H6            1 RES     
    1130 H6          61.6620   -47.3718    25.1149 H6            1 RES     
    1131 H6          63.3539   -48.3839    23.6106 H6            1 RES     
    1132 H6          62.7949   -46.9782    21.8315 H6            1 RES     
    1133 H6          62.2519   -46.1818    23.3118 H6            1 RES     
    1134 H6          60.5142   -47.5475    21.1304 H6            1 RES     
    1135 H6          60.8030   -45.8108    21.3429 H6            1 RES     
    1136 H6          59.1080   -47.6184    23.1518 H6            1 RES     
    1137 H6          58.5510   -46.3899    22.0288 H6            1 RES     
    1138 H6          60.1922   -45.8100    24.5829 H6            1 RES     
    1139 H6          58.4253   -45.6263    24.3728 H6            1 RES     
    1140 H6          60.5811   -44.0569    22.8112 H6            1 RES     
    1141 H6          58.7917   -43.9056    22.5958 H6            1 RES     
    1142 H6          58.5770   -43.1890    24.9882 H6            1 RES     
    1143 H6          59.6920   -42.1136    24.0628 H6            1 RES     
    1144 H6          60.3687   -43.3474    25.1931 H6            1 RES     
    1145 H6          62.2613   -49.2245    21.3450 H6            1 RES     
    1146 H6          60.8568   -49.7131    22.3516 H6            1 RES     
    1147 H6          63.8221   -50.6517    22.4528 H6            1 RES     
    1148 H6          62.5638   -51.1758    23.5949 H6            1 RES     
    1149 H6          61.1631   -52.0749    21.7885 H6            1 RES     
    1150 H6          62.3903   -51.6018    20.5514 H6            1 RES     
    1151 H6          64.0500   -53.1780    21.5759 H6            1 RES     
    1152 H6          62.9087   -53.5125    22.8982 H6            1 RES     
    1153 H6          61.2109   -54.3926    21.1999 H6            1 RES     
    1154 H6          62.4670   -54.1692    19.9324 H6            1 RES     
    1155 H6          63.9435   -55.8274    21.1702 H6            1 RES     
    1156 H6          62.3623   -56.4992    20.6255 H6            1 RES     
    1157 H6          61.3971   -56.1811    22.9182 H6            1 RES     
    1158 H6          63.0005   -55.6021    23.5129 H6            1 RES     
    1159 H6          62.6614   -57.9709    24.0590 H6            1 RES     
    1160 H6          62.4293   -58.3736    22.3166 H6            1 RES     
    1161 H6          64.0370   -57.7761    22.9061 H6            1 RES     
    1162 C0          61.2267   -50.7817    25.9171 C0            1 RES     
    1163 C0          62.1483   -52.0409    26.0352 C0            1 RES     
    1164 C0          61.5330   -53.2428    25.2373 C0            1 RES     
    1165 C0          60.3068   -54.0216    25.7743 C0            1 RES     
    1166 C0          58.9412   -53.3048    25.7842 C0            1 RES     
    1167 C0          58.4703   -52.7391    24.4278 C0            1 RES     
    1168 C0          58.3370   -53.7961    23.3238 C0            1 RES     
    1169 C0          57.8174   -53.1637    22.0342 C0            1 RES     
    1170 C0          62.4879   -52.5509    27.4665 C0            1 RES     
    1171 C0          63.3836   -51.6341    28.2826 C0            1 RES     
    1172 C0          63.8301   -52.2702    29.5996 C0            1 RES     
    1173 C0          64.7677   -51.3094    30.3396 C0            1 RES     
    1174 C0          65.2492   -51.9060    31.6677 C0            1 RES     
    1175 C0          66.2443   -50.9934    32.4046 C0            1 RES     
    1176 C0          65.6348   -49.6453    32.8215 C0            1 RES     
    1177 C0          66.6393   -48.8089    33.6068 C0            1 RES     
    1178 H6          60.3817   -50.9534    26.6064 H6            1 RES     
    1179 H6          60.7629   -50.8096    24.9187 H6            1 RES     
    1180 H6          63.1046   -51.8113    25.5257 H6            1 RES     
    1181 H6          62.3430   -54.0012    25.1678 H6            1 RES     
    1182 H6          61.2943   -52.9326    24.2060 H6            1 RES     
    1183 H6          60.5225   -54.4090    26.7907 H6            1 RES     
    1184 H6          60.1938   -54.9173    25.1263 H6            1 RES     
    1185 H6          58.9455   -52.4933    26.5315 H6            1 RES     
    1186 H6          58.1829   -54.0377    26.1359 H6            1 RES     
    1187 H6          59.1552   -51.9484    24.0746 H6            1 RES     
    1188 H6          57.4765   -52.2669    24.5912 H6            1 RES     
    1189 H6          59.3253   -54.2542    23.1095 H6            1 RES     
    1190 H6          57.6312   -54.5907    23.6486 H6            1 RES     
    1191 H6          56.8169   -52.7103    22.2019 H6            1 RES     
    1192 H6          57.7290   -53.9389    21.2448 H6            1 RES     
    1193 H6          58.5171   -52.3756    21.6809 H6            1 RES     
    1194 H6          63.0512   -53.5041    27.3526 H6            1 RES     
    1195 H6          61.5568   -52.7630    28.0354 H6            1 RES     
    1196 H6          64.2978   -51.4298    27.6905 H6            1 RES     
    1197 H6          62.8276   -50.7118    28.5177 H6            1 RES     
    1198 H6          62.9409   -52.4941    30.2279 H6            1 RES     
    1199 H6          64.3726   -53.2196    29.3896 H6            1 RES     
    1200 H6          65.6515   -51.0926    29.6986 H6            1 RES     
    1201 H6          64.2172   -50.3641    30.5253 H6            1 RES     
    1202 H6          64.3768   -52.1139    32.3249 H6            1 RES     
    1203 H6          65.7644   -52.8691    31.4577 H6            1 RES     
    1204 H6          67.1341   -50.8195    31.7599 H6            1 RES     
    1205 H6          66.5784   -51.5299    33.3196 H6            1 RES     
    1206 H6          64.7397   -49.8220    33.4564 H6            1 RES     
    1207 H6          65.3333   -49.0615    31.9272 H6            1 RES     
    1208 H6          66.1729   -47.8430    33.8944 H6            1 RES     
    1209 H6          66.9489   -49.3437    34.5298 H6            1 RES     
    1210 H6          67.5362   -48.6002    32.9853 H6            1 RES     
    1211 C0          74.8644   -49.3783    26.7451 C0            1 RES     
    1212 C1          73.4858   -49.2768    27.4104 C1            1 RES     
    1213 C1          73.5550   -49.1784    28.7566 C1            1 RES     
    1214 S2          72.0461   -49.0424    29.4637 S2            1 RES     
    1215 C1          71.2480   -49.1025    27.9571 C1            1 RES     
    1216 C1          72.1795   -49.2267    26.9199 C1            1 RES     
    1217 C1          74.9215   -49.2167    29.1332 C1            1 RES     
    1218 C1          75.7071   -49.3638    28.0263 C1            1 RES     
    1219 C1          77.0677   -49.4471    28.3396 C1            1 RES     
    1220 C1          77.2815   -49.3670    29.7397 C1            1 RES     
    1221 S2          75.7909   -49.1554    30.5446 S2            1 RES     
    1222 H3          71.9212   -49.2780    25.8714 H3            1 RES     
    1223 H3          77.8370   -49.5704    27.5923 H3            1 RES     
    1224 N4          79.8191   -49.1281    32.5183 N4            1 RES     
    1225 C1          78.6651   -49.0031    31.8027 C1            1 RES     
    1226 C1          78.5655   -49.4943    30.4802 C1            1 RES     
    1227 C1          79.6998   -50.1322    29.9465 C1            1 RES     
    1228 N4          79.7580   -50.7001    28.7154 N4            1 RES     
    1229 S2          81.2899   -51.3196    28.6755 S2            1 RES     
    1230 N4          81.9158   -50.9163    30.1496 N4            1 RES     
    1231 C1          80.8820   -50.2602    30.7295 C1            1 RES     
    1232 C1          80.9238   -49.7421    32.0169 C1            1 RES     
    1233 H5          77.8282   -48.5042    32.2718 H5            1 RES     
    1234 C0          74.9891   -48.0167    25.9602 C0            1 RES     
    1235 C0          76.2558   -47.3850    25.2823 C0            1 RES     
    1236 C0          76.0339   -45.8377    25.1095 C0            1 RES     
    1237 C0          75.1041   -45.2978    23.9826 C0            1 RES     
    1238 C0          73.5906   -45.5897    24.0496 C0            1 RES     
    1239 C0          72.8839   -45.1490    25.3460 C0            1 RES     
    1240 C0          72.9386   -43.6336    25.5804 C0            1 RES     
    1241 C0          72.1747   -43.2521    26.8465 C0            1 RES     
    1242 C0          76.6836   -47.9574    23.9007 C0            1 RES     
    1243 C0          77.5798   -49.1914    23.9477 C0            1 RES     
    1244 C0          77.8315   -49.7318    22.5279 C0            1 RES     
    1245 C0          78.6836   -51.0106    22.5397 C0            1 RES     
    1246 C0          78.7173   -51.6538    21.1424 C0            1 RES     
    1247 C0          79.3849   -53.0412    21.1137 C0            1 RES     
    1248 C0          78.5807   -54.1007    21.8935 C0            1 RES     
    1249 C0          79.1956   -55.4898    21.7544 C0            1 RES     
    1250 H6          74.1693   -48.0114    25.2282 H6            1 RES     
    1251 H6          74.7447   -47.2715    26.7491 H6            1 RES     
    1252 H6          77.1021   -47.4551    26.0014 H6            1 RES     
    1253 H6          77.0349   -45.4100    24.8759 H6            1 RES     
    1254 H6          75.7428   -45.3818    26.0801 H6            1 RES     
    1255 H6          75.4754   -45.6526    22.9981 H6            1 RES     
    1256 H6          75.2247   -44.1937    23.9745 H6            1 RES     
    1257 H6          73.4055   -46.6621    23.8729 H6            1 RES     
    1258 H6          73.1037   -45.0715    23.1948 H6            1 RES     
    1259 H6          73.3153   -45.6720    26.2193 H6            1 RES     
    1260 H6          71.8172   -45.4536    25.2666 H6            1 RES     
    1261 H6          73.9905   -43.2989    25.6942 H6            1 RES     
    1262 H6          72.4827   -43.1074    24.7139 H6            1 RES     
    1263 H6          71.1091   -43.5552    26.7623 H6            1 RES     
    1264 H6          72.2205   -42.1524    26.9927 H6            1 RES     
    1265 H6          72.6252   -43.7482    27.7327 H6            1 RES     
    1266 H6          77.3092   -47.2050    23.3693 H6            1 RES     
    1267 H6          75.7709   -48.1279    23.2879 H6            1 RES     
    1268 H6          78.5417   -48.9429    24.4469 H6            1 RES     
    1269 H6          77.0821   -49.9554    24.5292 H6            1 RES     
    1270 H6          76.8390   -49.9722    22.0850 H6            1 RES     
    1271 H6          78.3238   -48.9629    21.8934 H6            1 RES     
    1272 H6          79.7135   -50.7937    22.8962 H6            1 RES     
    1273 H6          78.2345   -51.7159    23.2498 H6            1 RES     
    1274 H6          77.6815   -51.7715    20.7533 H6            1 RES     
    1275 H6          79.2639   -50.9704    20.4557 H6            1 RES     
    1276 H6          80.4225   -52.9749    21.5053 H6            1 RES     
    1277 H6          79.4320   -53.3637    20.0506 H6            1 RES     
    1278 H6          77.5397   -54.1389    21.5024 H6            1 RES     
    1279 H6          78.5504   -53.8549    22.9713 H6            1 RES     
    1280 H6          78.5854   -56.2217    22.3220 H6            1 RES     
    1281 H6          79.2181   -55.7982    20.6872 H6            1 RES     
    1282 H6          80.2303   -55.4953    22.1613 H6            1 RES     
    1283 C0          74.8343   -50.6846    25.8527 C0            1 RES     
    1284 C0          75.8887   -51.8397    25.9080 C0            1 RES     
    1285 C0          75.9756   -52.5646    24.5199 C0            1 RES     
    1286 C0          74.8614   -53.5298    24.0450 C0            1 RES     
    1287 C0          73.4937   -52.9264    23.6654 C0            1 RES     
    1288 C0          73.5238   -51.8193    22.5905 C0            1 RES     
    1289 C0          74.1272   -52.2657    21.2524 C0            1 RES     
    1290 C0          74.0705   -51.1305    20.2320 C0            1 RES     
    1291 C0          75.6989   -52.9339    26.9992 C0            1 RES     
    1292 C0          75.9170   -52.4651    28.4279 C0            1 RES     
    1293 C0          75.8991   -53.6176    29.4329 C0            1 RES     
    1294 C0          76.1758   -53.0742    30.8393 C0            1 RES     
    1295 C0          76.1743   -54.1956    31.8852 C0            1 RES     
    1296 C0          76.5139   -53.6924    33.2986 C0            1 RES     
    1297 C0          75.4841   -52.6929    33.8488 C0            1 RES     
    1298 C0          75.8294   -52.2793    35.2754 C0            1 RES     
    1299 H6          73.8443   -51.1687    25.9165 H6            1 RES     
    1300 H6          74.8597   -50.2686    24.8334 H6            1 RES     
    1301 H6          76.8859   -51.3828    26.0615 H6            1 RES     
    1302 H6          76.8929   -53.1909    24.5668 H6            1 RES     
    1303 H6          76.1311   -51.8271    23.7145 H6            1 RES     
    1304 H6          74.7104   -54.3300    24.7978 H6            1 RES     
    1305 H6          75.2507   -54.0380    23.1367 H6            1 RES     
    1306 H6          72.9874   -52.5406    24.5663 H6            1 RES     
    1307 H6          72.8562   -53.7562    23.2902 H6            1 RES     
    1308 H6          74.0842   -50.9390    22.9510 H6            1 RES     
    1309 H6          72.4739   -51.4949    22.4176 H6            1 RES     
    1310 H6          75.1905   -52.5546    21.3881 H6            1 RES     
    1311 H6          73.5615   -53.1371    20.8579 H6            1 RES     
    1312 H6          73.0174   -50.8249    20.0520 H6            1 RES     
    1313 H6          74.5126   -51.4667    19.2711 H6            1 RES     
    1314 H6          74.6444   -50.2520    20.5986 H6            1 RES     
    1315 H6          76.4659   -53.7194    26.8163 H6            1 RES     
    1316 H6          74.6943   -53.4016    26.9112 H6            1 RES     
    1317 H6          76.9186   -51.9943    28.4866 H6            1 RES     
    1318 H6          75.1123   -51.7617    28.6976 H6            1 RES     
    1319 H6          74.9088   -54.1217    29.4073 H6            1 RES     
    1320 H6          76.6879   -54.3567    29.1660 H6            1 RES     
    1321 H6          77.1685   -52.5708    30.8496 H6            1 RES     
    1322 H6          75.3913   -52.3278    31.0817 H6            1 RES     
    1323 H6          75.1826   -54.6981    31.8966 H6            1 RES     
    1324 H6          76.9426   -54.9477    31.5997 H6            1 RES     
    1325 H6          77.5237   -53.2256    33.2923 H6            1 RES     
    1326 H6          76.5449   -54.5769    33.9719 H6            1 RES     
    1327 H6          74.4745   -53.1580    33.8436 H6            1 RES     
    1328 H6          75.4616   -51.7748    33.2258 H6            1 RES     
    1329 H6          75.0703   -51.5588    35.6465 H6            1 RES     
    1330 H6          75.8352   -53.1664    35.9437 H6            1 RES     
    1331 H6          76.8273   -51.7918    35.3042 H6            1 RES     
    1332 C0          86.0637   -49.4965    33.6712 C0            1 RES     
    1333 C1          84.5527   -49.7382    33.5622 C1            1 RES     
    1334 C1          84.0184   -50.2576    34.6897 C1            1 RES     
    1335 S2          82.3676   -50.4906    34.5633 S2            1 RES     
    1336 C1          82.3242   -49.8811    32.9706 C1            1 RES     
    1337 C1          83.6079   -49.5016    32.5619 C1            1 RES     
    1338 C1          85.0614   -50.4309    35.6345 C1            1 RES     
    1339 C1          86.2526   -50.0436    35.0914 C1            1 RES     
    1340 C1          87.3281   -50.2284    35.9663 C1            1 RES     
    1341 C1          86.9015   -50.7853    37.1993 C1            1 RES     
    1342 S2          85.2072   -50.9946    37.1878 S2            1 RES     
    1343 H3          83.8396   -49.0791    31.5941 H3            1 RES     
    1344 H3          88.3468   -49.9829    35.7065 H3            1 RES     
    1345 N4          87.8819   -51.7708    40.7042 N4            1 RES     
    1346 C1          87.1479   -51.3621    39.6302 C1            1 RES     
    1347 C1          87.7390   -51.2043    38.3551 C1            1 RES     
    1348 C1          89.1083   -51.5059    38.2420 C1            1 RES     
    1349 N4          89.8168   -51.4542    37.0858 N4            1 RES     
    1350 S2          91.3192   -51.9536    37.5603 S2            1 RES     
    1351 N4          91.1444   -52.2463    39.1762 N4            1 RES     
    1352 C1          89.8391   -51.9471    39.3814 C1            1 RES     
    1353 C1          89.2059   -52.0663    40.6112 C1            1 RES     
    1354 H5          86.0989   -51.1485    39.7836 H5            1 RES     
    1355 C0          86.1823   -47.9246    33.6409 C0            1 RES     
    1356 C0          87.4266   -47.0259    33.9682 C0            1 RES     
    1357 C0          86.9384   -45.5732    34.3211 C0            1 RES     
    1358 C0          86.4762   -44.6034    33.1934 C0            1 RES     
    1359 C0          85.1948   -44.9285    32.3978 C0            1 RES     
    1360 C0          83.9223   -45.1380    33.2411 C0            1 RES     
    1361 C0          83.5104   -43.8916    34.0355 C0            1 RES     
    1362 C0          82.2148   -44.1414    34.8043 C0            1 RES     
    1363 C0          88.5230   -46.9017    32.8719 C0            1 RES     
    1364 C0          89.5794   -48.0028    32.8687 C0            1 RES     
    1365 C0          90.5304   -47.8368    31.6692 C0            1 RES     
    1366 C0          91.5738   -48.9630    31.5997 C0            1 RES     
    1367 C0          92.3494   -48.9038    30.2722 C0            1 RES     
    1368 C0          93.2746   -50.1127    30.0395 C0            1 RES     
    1369 C0          92.4928   -51.4283    29.8520 C0            1 RES     
    1370 C0          93.4191   -52.5899    29.5065 C0            1 RES     
    1371 H6          85.7756   -47.6075    32.6703 H6            1 RES     
    1372 H6          85.4568   -47.6225    34.4281 H6            1 RES     
    1373 H6          87.8774   -47.3942    34.9166 H6            1 RES     
    1374 H6          87.8105   -45.0633    34.7892 H6            1 RES     
    1375 H6          86.1636   -45.6122    35.1166 H6            1 RES     
    1376 H6          87.3028   -44.4662    32.4648 H6            1 RES     
    1377 H6          86.3225   -43.6125    33.6711 H6            1 RES     
    1378 H6          85.3630   -45.8090    31.7560 H6            1 RES     
    1379 H6          85.0092   -44.0911    31.6903 H6            1 RES     
    1380 H6          84.0527   -45.9894    33.9342 H6            1 RES     
    1381 H6          83.0965   -45.3980    32.5429 H6            1 RES     
    1382 H6          84.3015   -43.6206    34.7650 H6            1 RES     
    1383 H6          83.3549   -43.0409    33.3370 H6            1 RES     
    1384 H6          81.3916   -44.3979    34.1036 H6            1 RES     
    1385 H6          81.9313   -43.2259    35.3651 H6            1 RES     
    1386 H6          82.3500   -44.9742    35.5273 H6            1 RES     
    1387 H6          89.1164   -45.9763    33.0491 H6            1 RES     
    1388 H6          88.0263   -46.7975    31.8819 H6            1 RES     
    1389 H6          90.1487   -47.9849    33.8236 H6            1 RES     
    1390 H6          89.0792   -48.9583    32.7885 H6            1 RES     
    1391 H6          89.9085   -47.8736    30.7467 H6            1 RES     
    1392 H6          91.0472   -46.8531    31.7070 H6            1 RES     
    1393 H6          92.2707   -48.9072    32.4636 H6            1 RES     
    1394 H6          91.0477   -49.9232    31.6667 H6            1 RES     
    1395 H6          91.6376   -48.8564    29.4182 H6            1 RES     
    1396 H6          92.9560   -47.9715    30.2626 H6            1 RES     
    1397 H6          93.9990   -50.2069    30.8765 H6            1 RES     
    1398 H6          93.8437   -49.9184    29.1042 H6            1 RES     
    1399 H6          91.7584   -51.3092    29.0246 H6            1 RES     
    1400 H6          91.9503   -51.6972    30.7774 H6            1 RES     
    1401 H6          92.8190   -53.5131    29.3731 H6            1 RES     
    1402 H6          93.9652   -52.3818    28.5615 H6            1 RES     
    1403 H6          94.1517   -52.7552    30.3264 H6            1 RES     
    1404 C0          86.7269   -50.2583    32.4532 C0            1 RES     
    1405 C0          87.8991   -51.2891    32.5639 C0            1 RES     
    1406 C0          88.7366   -51.3058    31.2380 C0            1 RES     
    1407 C0          88.1942   -51.9771    29.9520 C0            1 RES     
    1408 C0          87.0171   -51.2986    29.2220 C0            1 RES     
    1409 C0          87.2366   -49.8248    28.8201 C0            1 RES     
    1410 C0          88.4380   -49.6039    27.8918 C0            1 RES     
    1411 C0          88.5518   -48.1316    27.5013 C0            1 RES     
    1412 C0          87.5300   -52.7626    32.9059 C0            1 RES     
    1413 C0          87.0026   -52.9856    34.3133 C0            1 RES     
    1414 C0          86.8343   -54.4681    34.6487 C0            1 RES     
    1415 C0          86.3497   -54.6132    36.0958 C0            1 RES     
    1416 C0          86.1710   -56.0861    36.4833 C0            1 RES     
    1417 C0          85.7480   -56.2688    37.9509 C0            1 RES     
    1418 C0          84.3771   -55.6499    38.2672 C0            1 RES     
    1419 C0          83.9748   -55.9183    39.7134 C0            1 RES     
    1420 H6          85.9499   -50.7414    31.8356 H6            1 RES     
    1421 H6          87.0829   -49.4258    31.8263 H6            1 RES     
    1422 H6          88.5965   -50.9284    33.3451 H6            1 RES     
    1423 H6          89.6670   -51.8645    31.4793 H6            1 RES     
    1424 H6          89.0391   -50.2805    30.9660 H6            1 RES     
    1425 H6          87.9329   -53.0344    30.1607 H6            1 RES     
    1426 H6          89.0408   -52.0106    29.2329 H6            1 RES     
    1427 H6          86.1006   -51.3736    29.8313 H6            1 RES     
    1428 H6          86.8167   -51.8834    28.2981 H6            1 RES     
    1429 H6          87.3639   -49.1901    29.7145 H6            1 RES     
    1430 H6          86.3157   -49.4813    28.2993 H6            1 RES     
    1431 H6          89.3780   -49.8986    28.4037 H6            1 RES     
    1432 H6          88.3184   -50.2154    26.9717 H6            1 RES     
    1433 H6          87.6356   -47.8017    26.9661 H6            1 RES     
    1434 H6          89.4259   -47.9868    26.8329 H6            1 RES     
    1435 H6          88.6888   -47.5010    28.4064 H6            1 RES     
    1436 H6          88.4646   -53.3627    32.8325 H6            1 RES     
    1437 H6          86.8010   -53.1627    32.1684 H6            1 RES     
    1438 H6          87.7408   -52.5695    35.0275 H6            1 RES     
    1439 H6          86.0179   -52.4988    34.4047 H6            1 RES     
    1440 H6          86.0998   -54.9285    33.9531 H6            1 RES     
    1441 H6          87.8124   -54.9884    34.5379 H6            1 RES     
    1442 H6          87.0930   -54.1464    36.7803 H6            1 RES     
    1443 H6          85.3840   -54.0752    36.1923 H6            1 RES     
    1444 H6          85.4191   -56.5619    35.8166 H6            1 RES     
    1445 H6          87.1421   -56.6100    36.3429 H6            1 RES     
    1446 H6          86.5219   -55.8266    38.6167 H6            1 RES     
    1447 H6          85.6994   -57.3612    38.1532 H6            1 RES     
    1448 H6          83.6078   -56.0853    37.5932 H6            1 RES     
    1449 H6          84.4038   -54.5501    38.1214 H6            1 RES     
    1450 H6          82.9828   -55.4611    39.9132 H6            1 RES     
    1451 H6          83.9070   -57.0114    39.8986 H6            1 RES     
    1452 H6          84.7185   -55.4739    40.4089 H6            1 RES     
    1453 C0          92.9356   -52.4781    44.5017 C0            1 RES     
    1454 C1          91.7193   -52.6788    43.5886 C1            1 RES     
    1455 C1          90.8972   -53.6639    44.0131 C1            1 RES     
    1456 S2          89.5640   -53.8523    43.0219 S2            1 RES     
    1457 C1          90.0575   -52.5895    41.9863 C1            1 RES     
    1458 C1          91.2623   -52.0370    42.4359 C1            1 RES     
    1459 C1          91.4486   -54.2219    45.1944 C1            1 RES     
    1460 C1          92.6278   -53.6038    45.4966 C1            1 RES     
    1461 C1          93.2398   -54.1397    46.6343 C1            1 RES     
    1462 C1          92.4760   -55.2034    47.1796 C1            1 RES     
    1463 S2          91.0504   -55.4236    46.2664 S2            1 RES     
    1464 H3          91.7752   -51.2175    41.9522 H3            1 RES     
    1465 H3          94.1818   -53.7800    47.0202 H3            1 RES     
    1466 N4          92.0788   -57.6447    50.0255 N4            1 RES     
    1467 C1          91.7963   -56.8114    48.9838 C1            1 RES     
    1468 C1          92.8166   -56.0806    48.3318 C1            1 RES     
    1469 C1          94.1326   -56.2671    48.7923 C1            1 RES     
    1470 N4          95.2301   -55.6820    48.2496 N4            1 RES     
    1471 S2          96.4600   -56.3075    49.1596 S2            1 RES     
    1472 N4          95.6908   -57.3032    50.2293 N4            1 RES     
    1473 C1          94.3921   -57.1591    49.8712 C1            1 RES     
    1474 C1          93.3452   -57.8359    50.4821 C1            1 RES     
    1475 H5          90.7640   -56.7143    48.6766 H5            1 RES     
    1476 C0          92.6785   -51.0601    45.1412 C0            1 RES     
    1477 C0          93.4130   -50.3785    46.3491 C0            1 RES     
    1478 C0          92.4914   -49.2539    46.9484 C0            1 RES     
    1479 C0          92.3358   -47.8898    46.2129 C0            1 RES     
    1480 C0          91.6314   -47.8492    44.8408 C0            1 RES     
    1481 C0          90.2115   -48.4463    44.8031 C0            1 RES     
    1482 C0          89.2181   -47.7036    45.7064 C0            1 RES     
    1483 C0          87.8191   -48.3036    45.5834 C0            1 RES     
    1484 C0          94.8068   -49.7469    46.0698 C0            1 RES     
    1485 C0          95.9927   -50.7031    46.1565 C0            1 RES     
    1486 C0          97.2935   -49.9910    45.7417 C0            1 RES     
    1487 C0          98.5021   -50.9399    45.7604 C0            1 RES     
    1488 C0          99.7293   -50.2691    45.1189 C0            1 RES     
    1489 C0         100.9237   -51.2206    44.9201 C0            1 RES     
    1490 C0         100.6330   -52.3267    43.8861 C0            1 RES     
    1491 C0         101.8651   -53.1850    43.6176 C0            1 RES     
    1492 H6          92.6599   -50.3478    44.3045 H6            1 RES     
    1493 H6          91.6386   -51.1633    45.5225 H6            1 RES     
    1494 H6          93.4917   -51.1254    47.1701 H6            1 RES     
    1495 H6          92.9333   -48.9911    47.9359 H6            1 RES     
    1496 H6          91.4860   -49.6661    47.1808 H6            1 RES     
    1497 H6          93.3347   -47.4191    46.0961 H6            1 RES     
    1498 H6          91.7633   -47.2258    46.8948 H6            1 RES     
    1499 H6          92.2601   -48.3402    44.0798 H6            1 RES     
    1500 H6          91.5706   -46.7868    44.5184 H6            1 RES     
    1501 H6          90.2335   -49.5159    45.0820 H6            1 RES     
    1502 H6          89.8482   -48.3813    43.7539 H6            1 RES     
    1503 H6          89.5351   -47.7738    46.7675 H6            1 RES     
    1504 H6          89.1766   -46.6329    45.4107 H6            1 RES     
    1505 H6          87.4584   -48.2342    44.5349 H6            1 RES     
    1506 H6          87.1158   -47.7474    46.2383 H6            1 RES     
    1507 H6          87.8283   -49.3700    45.8953 H6            1 RES     
    1508 H6          95.0300   -48.9884    46.8538 H6            1 RES     
    1509 H6          94.7684   -49.2177    45.0921 H6            1 RES     
    1510 H6          96.0805   -51.1060    47.1890 H6            1 RES     
    1511 H6          95.8169   -51.5302    45.4823 H6            1 RES     
    1512 H6          97.1504   -49.6208    44.7018 H6            1 RES     
    1513 H6          97.4950   -49.1192    46.4017 H6            1 RES     
    1514 H6          98.7310   -51.2649    46.7982 H6            1 RES     
    1515 H6          98.2423   -51.8383    45.1872 H6            1 RES     
    1516 H6          99.4587   -49.8570    44.1213 H6            1 RES     
    1517 H6         100.0417   -49.4196    45.7654 H6            1 RES     
    1518 H6         101.2237   -51.6666    45.8924 H6            1 RES     
    1519 H6         101.7718   -50.6115    44.5380 H6            1 RES     
    1520 H6         100.3143   -51.8632    42.9260 H6            1 RES     
    1521 H6          99.8301   -52.9974    44.2447 H6            1 RES     
    1522 H6         101.6169   -53.9616    42.8656 H6            1 RES     
    1523 H6         102.6939   -52.5597    43.2220 H6            1 RES     
    1524 H6         102.1963   -53.6865    44.5531 H6            1 RES     
    1525 C0          94.2131   -52.5914    43.5750 C0            1 RES     
    1526 C0          95.4352   -53.5338    43.8343 C0            1 RES     
    1527 C0          96.7339   -52.9300    43.1948 C0            1 RES     
    1528 C0          96.9655   -52.9594    41.6639 C0            1 RES     
    1529 C0          96.0858   -52.0512    40.7806 C0            1 RES     
    1530 C0          96.0979   -50.5504    41.1400 C0            1 RES     
    1531 C0          97.4891   -49.9062    41.0809 C0            1 RES     
    1532 C0          97.4044   -48.4143    41.3972 C0            1 RES     
    1533 C0          95.3179   -55.0107    43.3554 C0            1 RES     
    1534 C0          94.3126   -55.8580    44.1170 C0            1 RES     
    1535 C0          94.3755   -57.3353    43.7270 C0            1 RES     
    1536 C0          93.3723   -58.1301    44.5706 C0            1 RES     
    1537 C0          93.4017   -59.6227    44.2201 C0            1 RES     
    1538 C0          92.4525   -60.4589    45.0953 C0            1 RES     
    1539 C0          90.9734   -60.0814    44.9156 C0            1 RES     
    1540 C0          90.0718   -60.9839    45.7510 C0            1 RES     
    1541 H6          93.9114   -52.7606    42.5267 H6            1 RES     
    1542 H6          94.5925   -51.5575    43.5771 H6            1 RES     
    1543 H6          95.6272   -53.5495    44.9250 H6            1 RES     
    1544 H6          97.5770   -53.5160    43.6210 H6            1 RES     
    1545 H6          96.8699   -51.8859    43.5237 H6            1 RES     
    1546 H6          96.8999   -54.0025    41.2931 H6            1 RES     
    1547 H6          98.0184   -52.6447    41.4983 H6            1 RES     
    1548 H6          95.0442   -52.4145    40.7842 H6            1 RES     
    1549 H6          96.4419   -52.1594    39.7331 H6            1 RES     
    1550 H6          95.6785   -50.3861    42.1480 H6            1 RES     
    1551 H6          95.4329   -50.0296    40.4162 H6            1 RES     
    1552 H6          98.1631   -50.3790    41.8257 H6            1 RES     
    1553 H6          97.9206   -50.0381    40.0653 H6            1 RES     
    1554 H6          96.7527   -47.8991    40.6592 H6            1 RES     
    1555 H6          98.4174   -47.9630    41.3536 H6            1 RES     
    1556 H6          96.9899   -48.2582    42.4168 H6            1 RES     
    1557 H6          96.3081   -55.4912    43.5207 H6            1 RES     
    1558 H6          95.0891   -55.0506    42.2683 H6            1 RES     
    1559 H6          94.5554   -55.7931    45.1963 H6            1 RES     
    1560 H6          93.2978   -55.4877    43.8977 H6            1 RES     
    1561 H6          94.1386   -57.4481    42.6469 H6            1 RES     
    1562 H6          95.4007   -57.7268    43.9150 H6            1 RES     
    1563 H6          93.6201   -58.0065    45.6487 H6            1 RES     
    1564 H6          92.3598   -57.7161    44.3842 H6            1 RES     
    1565 H6          93.1410   -59.7626    43.1484 H6            1 RES     
    1566 H6          94.4342   -60.0042    44.3801 H6            1 RES     
    1567 H6          92.7409   -60.3481    46.1641 H6            1 RES     
    1568 H6          92.5838   -61.5255    44.8094 H6            1 RES     
    1569 H6          90.6910   -60.1824    43.8453 H6            1 RES     
    1570 H6          90.7973   -59.0343    45.2380 H6            1 RES     
    1571 H6          89.0116   -60.6892    45.6018 H6            1 RES     
    1572 H6          90.1938   -62.0438    45.4421 H6            1 RES     
    1573 H6          90.3206   -60.8851    46.8293 H6            1 RES     
    1574 C0          95.0498   -59.8772    55.1878 C0            1 RES     
    1575 C1          94.4226   -59.6710    53.8031 C1            1 RES     
    1576 C1          93.7583   -60.7601    53.3569 C1            1 RES     
    1577 S2          93.0591   -60.5102    51.8589 S2            1 RES     
    1578 C1          93.6297   -58.9048    51.7730 C1            1 RES     
    1579 C1          94.3601   -58.5880    52.9242 C1            1 RES     
    1580 C1          93.8710   -61.7792    54.3364 C1            1 RES     
    1581 C1          94.6260   -61.3378    55.3848 C1            1 RES     
    1582 C1          94.8051   -62.3161    56.3682 C1            1 RES     
    1583 C1          94.1591   -63.5286    56.0147 C1            1 RES     
    1584 S2          93.3537   -63.3445    54.5207 S2            1 RES     
    1585 H3          94.8187   -57.6268    53.1099 H3            1 RES     
    1586 H3          95.3787   -62.1485    57.2673 H3            1 RES     
    1587 N4          93.1841   -67.0013    57.1132 N4            1 RES     
    1588 C1          93.1816   -65.7937    56.4799 C1            1 RES     
    1589 C1          94.1760   -64.8240    56.7460 C1            1 RES     
    1590 C1          95.1745   -65.1684    57.6749 C1            1 RES     
    1591 N4          96.2247   -64.3763    58.0082 N4            1 RES     
    1592 S2          97.0615   -65.3174    59.0787 S2            1 RES     
    1593 N4          96.1720   -66.7065    59.1602 N4            1 RES     
    1594 C1          95.1553   -66.4457    58.3036 C1            1 RES     
    1595 C1          94.1421   -67.3493    58.0132 C1            1 RES     
    1596 H5          92.3870   -65.5918    55.7747 H5            1 RES     
    1597 C0          94.2166   -58.9080    56.1110 C0            1 RES     
    1598 C0          94.1835   -58.8296    57.6781 C0            1 RES     
    1599 C0          92.8566   -58.1190    58.1337 C0            1 RES     
    1600 C0          92.7087   -56.5736    58.0068 C0            1 RES     
    1601 C0          92.6662   -55.9331    56.6038 C0            1 RES     
    1602 C0          91.5836   -56.4809    55.6540 C0            1 RES     
    1603 C0          90.1557   -56.2498    56.1659 C0            1 RES     
    1604 C0          89.1283   -56.7610    55.1584 C0            1 RES     
    1605 C0          95.3696   -58.1084    58.3798 C0            1 RES     
    1606 C0          96.5962   -58.9731    58.6557 C0            1 RES     
    1607 C0          97.7394   -58.1209    59.2370 C0            1 RES     
    1608 C0          99.0130   -58.9478    59.4734 C0            1 RES     
    1609 C0         100.1980   -58.0316    59.8251 C0            1 RES     
    1610 C0         101.5520   -58.7629    59.8830 C0            1 RES     
    1611 C0         102.0000   -59.2881    58.5044 C0            1 RES     
    1612 C0         103.3944   -59.9039    58.5619 C0            1 RES     
    1613 H6          94.3863   -57.8949    55.7201 H6            1 RES     
    1614 H6          93.1708   -59.1961    55.8649 H6            1 RES     
    1615 H6          94.0812   -59.8651    58.0725 H6            1 RES     
    1616 H6          92.7609   -58.3211    59.2243 H6            1 RES     
    1617 H6          91.9775   -58.6145    57.6684 H6            1 RES     
    1618 H6          93.5191   -56.0784    58.5820 H6            1 RES     
    1619 H6          91.7612   -56.3031    58.5193 H6            1 RES     
    1620 H6          93.6552   -56.0124    56.1233 H6            1 RES     
    1621 H6          92.4974   -54.8414    56.7307 H6            1 RES     
    1622 H6          91.7386   -57.5601    55.4713 H6            1 RES     
    1623 H6          91.6962   -55.9567    54.6795 H6            1 RES     
    1624 H6          89.9988   -56.7850    57.1253 H6            1 RES     
    1625 H6          89.9905   -55.1623    56.3265 H6            1 RES     
    1626 H6          89.2419   -56.2333    54.1873 H6            1 RES     
    1627 H6          88.1036   -56.5773    55.5445 H6            1 RES     
    1628 H6          89.2574   -57.8527    54.9965 H6            1 RES     
    1629 H6          95.0515   -57.7815    59.3956 H6            1 RES     
    1630 H6          95.6254   -57.1953    57.7982 H6            1 RES     
    1631 H6          96.3303   -59.7972    59.3530 H6            1 RES     
    1632 H6          96.9254   -59.4097    57.7226 H6            1 RES     
    1633 H6          97.9680   -57.3238    58.4944 H6            1 RES     
    1634 H6          97.4281   -57.6374    60.1886 H6            1 RES     
    1635 H6          98.8496   -59.7016    60.2734 H6            1 RES     
    1636 H6          99.2429   -59.4956    58.5512 H6            1 RES     
    1637 H6         100.2872   -57.2192    59.0700 H6            1 RES     
    1638 H6          99.9946   -57.5594    60.8115 H6            1 RES     
    1639 H6         101.5073   -59.5933    60.6197 H6            1 RES     
    1640 H6         102.3105   -58.0276    60.2303 H6            1 RES     
    1641 H6         102.0190   -58.4480    57.7751 H6            1 RES     
    1642 H6         101.3057   -60.0666    58.1370 H6            1 RES     
    1643 H6         103.6814   -60.2619    57.5521 H6            1 RES     
    1644 H6         104.1378   -59.1485    58.8953 H6            1 RES     
    1645 H6         103.4057   -60.7665    59.2634 H6            1 RES     
    1646 C0          96.5863   -59.5300    55.0382 C0            1 RES     
    1647 C0          97.7679   -60.4596    55.4724 C0            1 RES     
    1648 C0          99.0304   -59.6024    55.8347 C0            1 RES     
    1649 C0          99.8897   -58.9311    54.7350 C0            1 RES     
    1650 C0          99.2803   -57.7420    53.9647 C0            1 RES     
    1651 C0          98.7815   -56.5661    54.8308 C0            1 RES     
    1652 C0          99.8689   -55.9332    55.7088 C0            1 RES     
    1653 C0          99.3060   -54.7480    56.4907 C0            1 RES     
    1654 C0          98.2197   -61.5625    54.4705 C0            1 RES     
    1655 C0          97.2195   -62.6854    54.2529 C0            1 RES     
    1656 C0          97.7911   -63.8248    53.4082 C0            1 RES     
    1657 C0          96.7454   -64.9379    53.2760 C0            1 RES     
    1658 C0          97.2747   -66.1095    52.4402 C0            1 RES     
    1659 C0          96.2726   -67.2726    52.3431 C0            1 RES     
    1660 C0          94.9670   -66.8884    51.6288 C0            1 RES     
    1661 C0          94.0391   -68.0915    51.4981 C0            1 RES     
    1662 H6          96.8079   -59.2137    54.0041 H6            1 RES     
    1663 H6          96.6711   -58.6005    55.6226 H6            1 RES     
    1664 H6          97.4762   -60.9625    56.4151 H6            1 RES     
    1665 H6          99.7253   -60.2984    56.3529 H6            1 RES     
    1666 H6          98.7614   -58.8171    56.5611 H6            1 RES     
    1667 H6         100.2377   -59.6950    54.0103 H6            1 RES     
    1668 H6         100.8051   -58.5516    55.2381 H6            1 RES     
    1669 H6          98.4552   -58.0913    53.3212 H6            1 RES     
    1670 H6         100.0619   -57.3567    53.2744 H6            1 RES     
    1671 H6          97.9482   -56.8849    55.4809 H6            1 RES     
    1672 H6          98.3840   -55.7896    54.1405 H6            1 RES     
    1673 H6         100.2539   -56.6762    56.4384 H6            1 RES     
    1674 H6         100.7084   -55.5817    55.0711 H6            1 RES     
    1675 H6          98.9276   -53.9697    55.7937 H6            1 RES     
    1676 H6         100.1023   -54.3027    57.1228 H6            1 RES     
    1677 H6          98.4740   -55.0793    57.1491 H6            1 RES     
    1678 H6          99.1288   -62.0432    54.8963 H6            1 RES     
    1679 H6          98.4908   -61.1118    53.4913 H6            1 RES     
    1680 H6          96.9579   -63.1101    55.2425 H6            1 RES     
    1681 H6          96.3380   -62.2793    53.7303 H6            1 RES     
    1682 H6          98.0695   -63.4424    52.4024 H6            1 RES     
    1683 H6          98.7001   -64.2355    53.9031 H6            1 RES     
    1684 H6          96.4748   -65.3095    54.2898 H6            1 RES     
    1685 H6          95.8416   -64.5076    52.7973 H6            1 RES     
    1686 H6          97.5352   -65.7556    51.4189 H6            1 RES     
    1687 H6          98.1995   -66.4984    52.9205 H6            1 RES     
    1688 H6          96.0445   -67.6504    53.3643 H6            1 RES     
    1689 H6          96.7622   -68.0913    51.7716 H6            1 RES     
    1690 H6          95.1987   -66.5010    50.6130 H6            1 RES     
    1691 H6          94.4273   -66.1046    52.1996 H6            1 RES     
    1692 H6          93.1062   -67.7855    50.9793 H6            1 RES     
    1693 H6          94.5288   -68.8941    50.9066 H6            1 RES     
    1694 H6          93.7752   -68.4854    52.5028 H6            1 RES     
    1695 C0          94.1187   -71.2584    61.7462 C0            1 RES     
    1696 C1          94.1096   -70.4627    60.4346 C1            1 RES     
    1697 C1          93.9775   -71.2472    59.3420 C1            1 RES     
    1698 S2          93.9433   -70.3629    57.9234 S2            1 RES     
    1699 C1          94.0967   -68.8796    58.7521 C1            1 RES     
    1700 C1          94.1707   -69.1011    60.1321 C1            1 RES     
    1701 C1          93.9024   -72.5962    59.7724 C1            1 RES     
    1702 C1          94.0119   -72.6595    61.1318 C1            1 RES     
    1703 C1          93.9834   -73.9724    61.6132 C1            1 RES     
    1704 C1          93.8574   -74.9083    60.5547 C1            1 RES     
    1705 S2          93.7442   -74.0870    59.0623 S2            1 RES     
    1706 H3          94.2641   -68.3175    60.8711 H3            1 RES     
    1707 H3          94.0630   -74.2164    62.6619 H3            1 RES     
    1708 N4          93.3646   -78.5237    59.6042 N4            1 RES     
    1709 C1          93.3442   -77.1606    59.5716 C1            1 RES     
    1710 C1          93.8695   -76.3936    60.6374 C1            1 RES     
    1711 C1          94.4293   -77.0980    61.7186 C1            1 RES     
    1712 N4          95.0171   -76.5184    62.7956 N4            1 RES     
    1713 S2          95.5174   -77.8226    63.6793 S2            1 RES     
    1714 N4          95.0358   -79.1183    62.7756 N4            1 RES     
    1715 C1          94.4492   -78.5216    61.7101 C1            1 RES     
    1716 C1          93.9021   -79.2191    60.6416 C1            1 RES     
    1717 H5          92.9014   -76.6798    58.7101 H5            1 RES     
    1718 C0          92.7684   -70.8307    62.4388 C0            1 RES     
    1719 C0          92.0556   -71.4702    63.6821 C0            1 RES     
    1720 C0          90.5340   -71.0729    63.6684 C0            1 RES     
    1721 C0          90.0914   -69.6410    64.0926 C0            1 RES     
    1722 C0          90.4976   -68.4364    63.2183 C0            1 RES     
    1723 C0          90.0853   -68.5200    61.7360 C0            1 RES     
    1724 C0          88.5655   -68.5781    61.5326 C0            1 RES     
    1725 C0          88.2172   -68.6018    60.0459 C0            1 RES     
    1726 C0          92.6225   -71.1174    65.0870 C0            1 RES     
    1727 C0          93.7825   -71.9851    65.5663 C0            1 RES     
    1728 C0          94.3319   -71.4621    66.9063 C0            1 RES     
    1729 C0          95.5407   -72.2772    67.3921 C0            1 RES     
    1730 C0          96.2089   -71.5923    68.5970 C0            1 RES     
    1731 C0          97.5411   -72.2396    69.0187 C0            1 RES     
    1732 C0          98.6426   -72.0743    67.9526 C0            1 RES     
    1733 C0          99.9827   -72.6175    68.4381 C0            1 RES     
    1734 H6          92.8419   -69.7467    62.6051 H6            1 RES     
    1735 H6          92.0277   -71.0001    61.6264 H6            1 RES     
    1736 H6          92.0449   -72.5742    63.5428 H6            1 RES     
    1737 H6          90.0354   -71.7485    64.3996 H6            1 RES     
    1738 H6          90.0813   -71.3244    62.6853 H6            1 RES     
    1739 H6          90.4374   -69.4411    65.1285 H6            1 RES     
    1740 H6          88.9817   -69.6531    64.1383 H6            1 RES     
    1741 H6          91.5846   -68.2673    63.2914 H6            1 RES     
    1742 H6          90.0368   -67.5243    63.6565 H6            1 RES     
    1743 H6          90.5548   -69.3962    61.2522 H6            1 RES     
    1744 H6          90.4728   -67.6095    61.2283 H6            1 RES     
    1745 H6          88.1484   -69.4927    62.0026 H6            1 RES     
    1746 H6          88.0945   -67.6849    61.9973 H6            1 RES     
    1747 H6          88.6032   -67.6895    59.5428 H6            1 RES     
    1748 H6          87.1144   -68.6360    59.9216 H6            1 RES     
    1749 H6          88.6582   -69.4990    59.5610 H6            1 RES     
    1750 H6          91.8356   -71.2925    65.8551 H6            1 RES     
    1751 H6          92.8758   -70.0344    65.1070 H6            1 RES     
    1752 H6          93.4500   -73.0413    65.6665 H6            1 RES     
    1753 H6          94.5700   -71.9450    64.8262 H6            1 RES     
    1754 H6          94.6574   -70.4104    66.7421 H6            1 RES     
    1755 H6          93.5410   -71.4684    67.6878 H6            1 RES     
    1756 H6          95.2375   -73.3148    67.6497 H6            1 RES     
    1757 H6          96.2633   -72.3433    66.5694 H6            1 RES     
    1758 H6          96.4143   -70.5244    68.3611 H6            1 RES     
    1759 H6          95.5002   -71.6219    69.4538 H6            1 RES     
    1760 H6          97.3867   -73.3141    69.2547 H6            1 RES     
    1761 H6          97.8815   -71.7236    69.9430 H6            1 RES     
    1762 H6          98.7692   -70.9950    67.7136 H6            1 RES     
    1763 H6          98.3770   -72.6181    67.0270 H6            1 RES     
    1764 H6         100.7473   -72.4735    67.6476 H6            1 RES     
    1765 H6         100.3111   -72.0777    69.3521 H6            1 RES     
    1766 H6          99.8999   -73.7035    68.6615 H6            1 RES     
    1767 C0          95.4420   -70.8461    62.5093 C0            1 RES     
    1768 C0          96.5110   -71.8443    63.0659 C0            1 RES     
    1769 C0          97.2563   -71.2150    64.2941 C0            1 RES     
    1770 C0          98.3144   -70.0996    64.1079 C0            1 RES     
    1771 C0          97.8264   -68.7049    63.6657 C0            1 RES     
    1772 C0          96.7435   -68.0595    64.5558 C0            1 RES     
    1773 C0          97.1703   -67.8674    66.0169 C0            1 RES     
    1774 C0          96.0648   -67.1771    66.8134 C0            1 RES     
    1775 C0          97.5931   -72.3644    62.0747 C0            1 RES     
    1776 C0          97.0786   -73.2899    60.9851 C0            1 RES     
    1777 C0          98.2075   -73.9109    60.1613 C0            1 RES     
    1778 C0          97.6146   -74.8674    59.1204 C0            1 RES     
    1779 C0          98.7103   -75.5220    58.2705 C0            1 RES     
    1780 C0          98.1525   -76.5380    57.2592 C0            1 RES     
    1781 C0          97.2238   -75.9023    56.2123 C0            1 RES     
    1782 C0          96.7546   -76.9371    55.1952 C0            1 RES     
    1783 H6          95.9995   -70.0914    61.9278 H6            1 RES     
    1784 H6          95.0470   -70.2796    63.3672 H6            1 RES     
    1785 H6          95.9754   -72.7256    63.4699 H6            1 RES     
    1786 H6          97.8089   -72.0541    64.7701 H6            1 RES     
    1787 H6          96.5263   -70.8495    65.0358 H6            1 RES     
    1788 H6          99.1077   -70.4450    63.4142 H6            1 RES     
    1789 H6          98.8103   -69.9678    65.0937 H6            1 RES     
    1790 H6          97.4617   -68.7442    62.6253 H6            1 RES     
    1791 H6          98.7107   -68.0314    63.6526 H6            1 RES     
    1792 H6          95.8151   -68.6568    64.5379 H6            1 RES     
    1793 H6          96.5047   -67.0641    64.1204 H6            1 RES     
    1794 H6          97.3735   -68.8510    66.4900 H6            1 RES     
    1795 H6          98.0909   -67.2465    66.0602 H6            1 RES     
    1796 H6          95.8452   -66.1766    66.3826 H6            1 RES     
    1797 H6          96.3863   -67.0477    67.8678 H6            1 RES     
    1798 H6          95.1371   -67.7892    66.7978 H6            1 RES     
    1799 H6          98.3209   -72.9647    62.6653 H6            1 RES     
    1800 H6          98.1386   -71.5135    61.6121 H6            1 RES     
    1801 H6          96.5309   -74.1221    61.4705 H6            1 RES     
    1802 H6          96.4338   -72.7117    60.3033 H6            1 RES     
    1803 H6          98.7868   -73.1087    59.6550 H6            1 RES     
    1804 H6          98.8891   -74.4801    60.8329 H6            1 RES     
    1805 H6          97.0360   -75.6633    59.6409 H6            1 RES     
    1806 H6          96.9259   -74.2879    58.4714 H6            1 RES     
    1807 H6          99.2873   -74.7387    57.7324 H6            1 RES     
    1808 H6          99.4068   -76.0649    58.9469 H6            1 RES     
    1809 H6          97.6094   -77.3419    57.8037 H6            1 RES     
    1810 H6          99.0175   -76.9984    56.7333 H6            1 RES     
    1811 H6          97.7654   -75.0922    55.6775 H6            1 RES     
    1812 H6          96.3237   -75.4739    56.6998 H6            1 RES     
    1813 H6          96.0871   -76.4509    54.4528 H6            1 RES     
    1814 H6          97.6243   -77.3740    54.6599 H6            1 RES     
    1815 H6          96.1911   -77.7486    55.7033 H6            1 RES     
    1816 C0          93.2259   -84.3931    62.0520 C0            1 RES     
    1817 C1          93.5857   -83.0908    61.3253 C1            1 RES     
    1818 C1          94.1206   -83.2991    60.1018 C1            1 RES     
    1819 S2          94.4828   -81.8701    59.3133 S2            1 RES     
    1820 C1          93.9125   -80.9187    60.6094 C1            1 RES     
    1821 C1          93.4439   -81.7385    61.6426 C1            1 RES     
    1822 C1          94.1929   -84.6983    59.8831 C1            1 RES     
    1823 C1          93.7266   -85.3670    60.9782 C1            1 RES     
    1824 C1          93.8093   -86.7559    60.8360 C1            1 RES     
    1825 C1          94.3710   -87.1146    59.5838 C1            1 RES     
    1826 S2          94.7106   -85.7100    58.6747 S2            1 RES     
    1827 H3          93.0255   -81.3719    62.5696 H3            1 RES     
    1828 H3          93.4916   -87.4458    61.6033 H3            1 RES     
    1829 N4          95.2034   -89.9196    57.2055 N4            1 RES     
    1830 C1          94.8754   -88.6900    57.6953 C1            1 RES     
    1831 C1          94.6996   -88.4761    59.0822 C1            1 RES     
    1832 C1          94.8971   -89.5802    59.9309 C1            1 RES     
    1833 N4          94.8155   -89.5371    61.2847 N4            1 RES     
    1834 S2          95.1874   -91.0881    61.7185 S2            1 RES     
    1835 N4          95.4583   -91.8457    60.2762 N4            1 RES     
    1836 C1          95.2564   -90.8453    59.3853 C1            1 RES     
    1837 C1          95.3978   -90.9965    58.0125 C1            1 RES     
    1838 H5          94.7401   -87.8818    56.9896 H5            1 RES     
    1839 C0          91.6506   -84.3558    62.1038 C0            1 RES     
    1840 C0          90.6519   -85.5045    62.4862 C0            1 RES     
    1841 C0          89.2340   -85.1787    61.8890 C0            1 RES     
    1842 C0          88.3269   -84.1040    62.5584 C0            1 RES     
    1843 C0          88.7667   -82.6253    62.5342 C0            1 RES     
    1844 C0          89.0557   -82.0390    61.1389 C0            1 RES     
    1845 C0          87.8281   -82.0335    60.2184 C0            1 RES     
    1846 C0          88.1606   -81.3903    58.8738 C0            1 RES     
    1847 C0          90.4669   -85.8123    63.9996 C0            1 RES     
    1848 C0          91.4831   -86.7762    64.6050 C0            1 RES     
    1849 C0          91.2699   -86.9032    66.1247 C0            1 RES     
    1850 C0          92.3135   -87.8221    66.7791 C0            1 RES     
    1851 C0          92.2229   -87.7410    68.3129 C0            1 RES     
    1852 C0          93.3616   -88.4784    69.0417 C0            1 RES     
    1853 C0          94.7372   -87.8238    68.8045 C0            1 RES     
    1854 C0          95.8310   -88.4971    69.6274 C0            1 RES     
    1855 H6          91.3865   -83.4628    62.6876 H6            1 RES     
    1856 H6          91.3887   -84.1564    61.0413 H6            1 RES     
    1857 H6          90.9642   -86.4260    61.9462 H6            1 RES     
    1858 H6          88.6486   -86.1231    61.9598 H6            1 RES     
    1859 H6          89.3157   -84.9688    60.8009 H6            1 RES     
    1860 H6          88.1419   -84.3862    63.6162 H6            1 RES     
    1861 H6          87.3409   -84.1608    62.0502 H6            1 RES     
    1862 H6          89.6450   -82.4828    63.1851 H6            1 RES     
    1863 H6          87.9613   -82.0207    63.0055 H6            1 RES     
    1864 H6          89.8795   -82.5907    60.6499 H6            1 RES     
    1865 H6          89.3933   -80.9887    61.2799 H6            1 RES     
    1866 H6          87.4814   -83.0710    60.0318 H6            1 RES     
    1867 H6          87.0070   -81.4579    60.6982 H6            1 RES     
    1868 H6          88.4946   -80.3406    59.0183 H6            1 RES     
    1869 H6          87.2580   -81.3898    58.2271 H6            1 RES     
    1870 H6          88.9649   -81.9609    58.3620 H6            1 RES     
    1871 H6          89.4950   -86.3337    64.1522 H6            1 RES     
    1872 H6          90.4224   -84.8499    64.5558 H6            1 RES     
    1873 H6          91.4011   -87.7708    64.1149 H6            1 RES     
    1874 H6          92.4758   -86.3877    64.4227 H6            1 RES     
    1875 H6          91.3740   -85.8838    66.5594 H6            1 RES     
    1876 H6          90.2487   -87.2803    66.3508 H6            1 RES     
    1877 H6          92.1858   -88.8706    66.4339 H6            1 RES     
    1878 H6          93.3097   -87.4925    66.4594 H6            1 RES     
    1879 H6          92.2487   -86.6775    68.6392 H6            1 RES     
    1880 H6          91.2470   -88.1711    68.6291 H6            1 RES     
    1881 H6          93.3819   -89.5468    68.7377 H6            1 RES     
    1882 H6          93.1439   -88.4286    70.1310 H6            1 RES     
    1883 H6          94.6927   -86.7505    69.0945 H6            1 RES     
    1884 H6          95.0274   -87.8962    67.7398 H6            1 RES     
    1885 H6          96.8004   -87.9937    69.4344 H6            1 RES     
    1886 H6          95.6016   -88.4216    70.7119 H6            1 RES     
    1887 H6          95.9219   -89.5683    69.3438 H6            1 RES     
    1888 C0          93.9601   -84.3403    63.4526 C0            1 RES     
    1889 C0          94.8949   -85.4577    64.0241 C0            1 RES     
    1890 C0          94.8752   -85.4350    65.5922 C0            1 RES     
    1891 C0          95.6134   -84.3321    66.3903 C0            1 RES     
    1892 C0          95.0434   -82.8997    66.3437 C0            1 RES     
    1893 C0          93.5659   -82.7514    66.7643 C0            1 RES     
    1894 C0          93.2729   -83.2311    68.1918 C0            1 RES     
    1895 C0          91.8048   -83.0010    68.5454 C0            1 RES     
    1896 C0          96.3848   -85.4484    63.5721 C0            1 RES     
    1897 C0          96.6179   -85.7927    62.1106 C0            1 RES     
    1898 C0          98.1015   -85.9481    61.7738 C0            1 RES     
    1899 C0          98.2527   -86.3438    60.3006 C0            1 RES     
    1900 C0          99.7264   -86.5182    59.9142 C0            1 RES     
    1901 C0          99.9099   -86.9794    58.4583 C0            1 RES     
    1902 C0          99.3920   -85.9604    57.4308 C0            1 RES     
    1903 C0          99.6598   -86.4338    56.0061 C0            1 RES     
    1904 H6          94.5146   -83.3918    63.5583 H6            1 RES     
    1905 H6          93.1162   -84.2322    64.1518 H6            1 RES     
    1906 H6          94.4650   -86.4384    63.7410 H6            1 RES     
    1907 H6          95.3552   -86.3857    65.9108 H6            1 RES     
    1908 H6          93.8356   -85.4611    65.9601 H6            1 RES     
    1909 H6          96.6831   -84.3083    66.0986 H6            1 RES     
    1910 H6          95.5969   -84.6490    67.4553 H6            1 RES     
    1911 H6          95.1758   -82.4726    65.3352 H6            1 RES     
    1912 H6          95.6614   -82.2730    67.0227 H6            1 RES     
    1913 H6          92.9045   -83.2971    66.0688 H6            1 RES     
    1914 H6          93.3056   -81.6725    66.6903 H6            1 RES     
    1915 H6          93.4833   -84.3174    68.2826 H6            1 RES     
    1916 H6          93.9112   -82.6760    68.9125 H6            1 RES     
    1917 H6          91.5580   -81.9192    68.4862 H6            1 RES     
    1918 H6          91.6073   -83.3551    69.5785 H6            1 RES     
    1919 H6          91.1465   -83.5609    67.8463 H6            1 RES     
    1920 H6          96.9125   -86.2342    64.1577 H6            1 RES     
    1921 H6          96.8555   -84.4681    63.8023 H6            1 RES     
    1922 H6          96.1311   -86.7667    61.9046 H6            1 RES     
    1923 H6          96.2066   -84.9835    61.4853 H6            1 RES     
    1924 H6          98.6318   -84.9907    61.9674 H6            1 RES     
    1925 H6          98.5470   -86.7438    62.4126 H6            1 RES     
    1926 H6          97.7155   -87.3020    60.1209 H6            1 RES     
    1927 H6          97.7889   -85.5494    59.6801 H6            1 RES     
    1928 H6         100.2728   -85.5633    60.0745 H6            1 RES     
    1929 H6         100.1768   -87.2921    60.5741 H6            1 RES     
    1930 H6          99.3954   -87.9549    58.3117 H6            1 RES     
    1931 H6         100.9983   -87.1324    58.2888 H6            1 RES     
    1932 H6          99.8996   -84.9840    57.5866 H6            1 RES     
    1933 H6          98.2968   -85.8194    57.5408 H6            1 RES     
    1934 H6          99.2763   -85.6799    55.2867 H6            1 RES     
    1935 H6         100.7507   -86.5615    55.8406 H6            1 RES     
    1936 H6          99.1447   -87.4000    55.8181 H6            1 RES     
    1937 C0          95.4381   -96.2630    56.7962 C0            1 RES     
    1938 C1          95.7514   -94.7650    56.9030 C1            1 RES     
    1939 C1          96.7877   -94.3853    56.1230 C1            1 RES     
    1940 S2          97.0992   -92.7463    56.2312 S2            1 RES     
    1941 C1          95.8245   -92.4972    57.3373 C1            1 RES     
    1942 C1          95.1714   -93.7060    57.6040 C1            1 RES     
    1943 C1          97.2763   -95.5323    55.4473 C1            1 RES     
    1944 C1          96.5628   -96.6344    55.8220 C1            1 RES     
    1945 C1          97.0256   -97.8065    55.2154 C1            1 RES     
    1946 C1          98.1333   -97.5473    54.3679 C1            1 RES     
    1947 S2          98.4820   -95.8761    54.3612 S2            1 RES     
    1948 H3          94.3252   -93.8079    58.2691 H3            1 RES     
    1949 H3          96.5863   -98.7759    55.3969 H3            1 RES     
    1950 N4         100.5369   -98.9539    51.8260 N4            1 RES     
    1951 C1          99.7501   -98.0865    52.5246 C1            1 RES     
    1952 C1          98.9569   -98.5269    53.6095 C1            1 RES     
    1953 C1          99.0315   -99.8907    53.9457 C1            1 RES     
    1954 N4          98.3753  -100.4663    54.9846 N4            1 RES     
    1955 S2          98.8846  -102.0369    54.9079 S2            1 RES     
    1956 N4          99.9137  -102.0540    53.6163 N4            1 RES     
    1957 C1          99.8777  -100.7637    53.2049 C1            1 RES     
    1958 C1         100.6201  -100.2745    52.1385 C1            1 RES     
    1959 H5          99.7394   -97.0499    52.2168 H5            1 RES     
    1960 C0          94.0309   -96.2891    56.0856 C0            1 RES     
    1961 C0          93.2692   -97.5090    55.4575 C0            1 RES     
    1962 C0          92.2065   -96.9809    54.4254 C0            1 RES     
    1963 C0          90.8744   -96.3461    54.9238 C0            1 RES     
    1964 C0          90.9174   -95.0066    55.6884 C0            1 RES     
    1965 C0          91.6229   -93.8463    54.9604 C0            1 RES     
    1966 C0          90.9399   -93.4531    53.6438 C0            1 RES     
    1967 C0          91.6484   -92.2641    52.9986 C0            1 RES     
    1968 C0          92.5381   -98.4720    56.4361 C0            1 RES     
    1969 C0          93.3980   -99.5821    57.0334 C0            1 RES     
    1970 C0          92.5967  -100.3874    58.0728 C0            1 RES     
    1971 C0          93.4490  -101.4788    58.7392 C0            1 RES     
    1972 C0          92.6994  -102.1021    59.9296 C0            1 RES     
    1973 C0          93.5601  -103.0632    60.7705 C0            1 RES     
    1974 C0          94.7070  -102.3409    61.5053 C0            1 RES     
    1975 C0          95.4733  -103.2883    62.4229 C0            1 RES     
    1976 H6          93.3401   -95.7630    56.7593 H6            1 RES     
    1977 H6          94.2058   -95.6369    55.2017 H6            1 RES     
    1978 H6          93.9902   -98.0794    54.8306 H6            1 RES     
    1979 H6          91.8895   -97.8684    53.8326 H6            1 RES     
    1980 H6          92.6899   -96.2998    53.6925 H6            1 RES     
    1981 H6          90.3307   -97.0803    55.5549 H6            1 RES     
    1982 H6          90.2422   -96.1894    54.0241 H6            1 RES     
    1983 H6          91.3745   -95.1538    56.6808 H6            1 RES     
    1984 H6          89.8699   -94.6991    55.8996 H6            1 RES     
    1985 H6          92.6813   -94.0983    54.7646 H6            1 RES     
    1986 H6          91.6083   -92.9659    55.6398 H6            1 RES     
    1987 H6          90.9629   -94.3018    52.9292 H6            1 RES     
    1988 H6          89.8820   -93.1757    53.8429 H6            1 RES     
    1989 H6          91.6293   -91.3859    53.6788 H6            1 RES     
    1990 H6          91.1343   -91.9918    52.0529 H6            1 RES     
    1991 H6          92.7040   -92.5230    52.7682 H6            1 RES     
    1992 H6          91.7482   -99.0282    55.8825 H6            1 RES     
    1993 H6          92.0343   -97.8665    57.2216 H6            1 RES     
    1994 H6          93.7709  -100.2492    56.2258 H6            1 RES     
    1995 H6          94.2504   -99.1306    57.5225 H6            1 RES     
    1996 H6          92.2609   -99.6726    58.8573 H6            1 RES     
    1997 H6          91.6982  -100.8492    57.6085 H6            1 RES     
    1998 H6          93.7333  -102.2605    58.0023 H6            1 RES     
    1999 H6          94.3768  -101.0177    59.0997 H6            1 RES     
    2000 H6          92.3307  -101.3009    60.6079 H6            1 RES     
    2001 H6          91.8149  -102.6508    59.5376 H6            1 RES     
    2002 H6          93.9608  -103.8779    60.1302 H6            1 RES     
    2003 H6          92.8956  -103.5164    61.5383 H6            1 RES     
    2004 H6          94.2900  -101.5160    62.1248 H6            1 RES     
    2005 H6          95.4298  -101.9173    60.7833 H6            1 RES     
    2006 H6          96.2825  -102.7301    62.9366 H6            1 RES     
    2007 H6          94.7945  -103.7167    63.1911 H6            1 RES     
    2008 H6          95.9278  -104.1132    61.8318 H6            1 RES     
    2009 C0          95.4723   -96.8326    58.2720 C0            1 RES     
    2010 C0          96.3120   -98.0659    58.7440 C0            1 RES     
    2011 C0          95.6236   -98.7552    59.9732 C0            1 RES     
    2012 C0          95.6676   -98.1158    61.3831 C0            1 RES     
    2013 C0          94.8489   -96.8306    61.6214 C0            1 RES     
    2014 C0          93.3443   -96.9223    61.2904 C0            1 RES     
    2015 C0          92.5962   -98.0023    62.0829 C0            1 RES     
    2016 C0          91.1089   -97.9905    61.7353 C0            1 RES     
    2017 C0          97.8033   -97.8192    59.1172 C0            1 RES     
    2018 C0          98.7092   -97.4601    57.9514 C0            1 RES     
    2019 C0         100.1853   -97.4124    58.3484 C0            1 RES     
    2020 C0         101.0370   -97.0956    57.1138 C0            1 RES     
    2021 C0         102.5299   -97.0427    57.4598 C0            1 RES     
    2022 C0         103.4180   -96.7914    56.2293 C0            1 RES     
    2023 C0         103.1595   -95.4300    55.5642 C0            1 RES     
    2024 C0         104.1109   -95.2018    54.3945 C0            1 RES     
    2025 H6          95.6865   -96.0219    58.9900 H6            1 RES     
    2026 H6          94.4125   -97.0716    58.4520 H6            1 RES     
    2027 H6          96.2897   -98.8221    57.9351 H6            1 RES     
    2028 H6          96.1337   -99.7360    60.0901 H6            1 RES     
    2029 H6          94.5654   -98.9685    59.7465 H6            1 RES     
    2030 H6          96.7203   -97.9383    61.6833 H6            1 RES     
    2031 H6          95.2763   -98.8804    62.0882 H6            1 RES     
    2032 H6          95.2912   -95.9908    61.0594 H6            1 RES     
    2033 H6          94.9515   -96.5649    62.6959 H6            1 RES     
    2034 H6          93.1914   -97.1095    60.2131 H6            1 RES     
    2035 H6          92.8918   -95.9329    61.5216 H6            1 RES     
    2036 H6          92.9997   -99.0071    61.8377 H6            1 RES     
    2037 H6          92.7160   -97.8187    63.1723 H6            1 RES     
    2038 H6          90.6612   -97.0048    61.9859 H6            1 RES     
    2039 H6          90.5819   -98.7779    62.3133 H6            1 RES     
    2040 H6          90.9636   -98.1887    60.6513 H6            1 RES     
    2041 H6          98.2025   -98.7726    59.5302 H6            1 RES     
    2042 H6          97.8838   -97.0385    59.9043 H6            1 RES     
    2043 H6          98.6029   -98.2464    57.1778 H6            1 RES     
    2044 H6          98.4230   -96.4652    57.5729 H6            1 RES     
    2045 H6         100.3389   -96.6341    59.1270 H6            1 RES     
    2046 H6         100.4925   -98.4005    58.7594 H6            1 RES     
    2047 H6         100.8717   -97.8810    56.3426 H6            1 RES     
    2048 H6         100.7063   -96.1173    56.7079 H6            1 RES     
    2049 H6         102.7123   -96.2512    58.2191 H6            1 RES     
    2050 H6         102.8272   -98.0209    57.8980 H6            1 RES     
    2051 H6         103.2626   -97.6066    55.4883 H6            1 RES     
    2052 H6         104.4772   -96.8263    56.5663 H6            1 RES     
    2053 H6         103.3048   -94.6183    56.3095 H6            1 RES     
    2054 H6         102.1225   -95.3790    55.1726 H6            1 RES     
    2055 H6         103.9020   -94.2130    53.9343 H6            1 RES     
    2056 H6         105.1646   -95.2158    54.7456 H6            1 RES     
    2057 H6         103.9703   -95.9900    53.6243 H6            1 RES     
    2058 C0         102.4234  -104.4193    49.1745 C0            1 RES     
    2059 C1         102.2957  -103.1248    49.9878 C1            1 RES     
    2060 C1         103.4420  -102.4099    50.0260 C1            1 RES     
    2061 S2         103.2787  -100.9903    50.8939 S2            1 RES     
    2062 C1         101.6362  -101.2975    51.2380 C1            1 RES     
    2063 C1         101.2397  -102.5108    50.6639 C1            1 RES     
    2064 C1         104.4283  -103.1159    49.2914 C1            1 RES     
    2065 C1         103.9079  -104.2843    48.8139 C1            1 RES     
    2066 C1         104.8483  -105.0446    48.1113 C1            1 RES     
    2067 C1         106.1142  -104.4049    48.0848 C1            1 RES     
    2068 S2         106.0246  -102.9038    48.8930 S2            1 RES     
    2069 H3         100.2422  -102.9217    50.7351 H3            1 RES     
    2070 H3         104.6179  -106.0010    47.6666 H3            1 RES     
    2071 N4         109.6276  -104.4547    46.7171 N4            1 RES     
    2072 C1         108.4375  -104.0152    47.2170 C1            1 RES     
    2073 C1         107.3886  -104.9166    47.5127 C1            1 RES     
    2074 C1         107.6352  -106.2829    47.2871 C1            1 RES     
    2075 N4         106.7576  -107.2809    47.5612 N4            1 RES     
    2076 S2         107.6085  -108.6349    47.1434 S2            1 RES     
    2077 N4         109.0600  -108.0427    46.6238 N4            1 RES     
    2078 C1         108.8965  -106.7070    46.7808 C1            1 RES     
    2079 C1         109.8816  -105.7717    46.4937 C1            1 RES     
    2080 H5         108.3125  -102.9520    47.3697 H5            1 RES     
    2081 C0         101.5019  -104.1534    47.9231 C0            1 RES     
    2082 C0         101.3930  -104.9745    46.5901 C0            1 RES     
    2083 C0         100.7773  -104.0612    45.4676 C0            1 RES     
    2084 C0          99.2510  -103.7509    45.4557 C0            1 RES     
    2085 C0          98.6456  -102.9014    46.5926 C0            1 RES     
    2086 C0          99.2952  -101.5215    46.8115 C0            1 RES     
    2087 C0          99.1641  -100.5912    45.5984 C0            1 RES     
    2088 C0          99.7743   -99.2231    45.8948 C0            1 RES     
    2089 C0         100.5678  -106.2924    46.6313 C0            1 RES     
    2090 C0         101.3293  -107.5326    47.0899 C0            1 RES     
    2091 C0         100.3794  -108.7389    47.2055 C0            1 RES     
    2092 C0         101.1005  -109.9939    47.7219 C0            1 RES     
    2093 C0         100.0884  -111.1051    48.0510 C0            1 RES     
    2094 C0         100.7117  -112.3226    48.7586 C0            1 RES     
    2095 C0         101.2301  -111.9847    50.1708 C0            1 RES     
    2096 C0         101.7351  -113.2269    50.8978 C0            1 RES     
    2097 H6         100.4873  -104.0047    48.3186 H6            1 RES     
    2098 H6         101.8750  -103.1682    47.5662 H6            1 RES     
    2099 H6         102.4247  -105.1831    46.2290 H6            1 RES     
    2100 H6         100.9629  -104.5916    44.5065 H6            1 RES     
    2101 H6         101.3489  -103.1115    45.3901 H6            1 RES     
    2102 H6          98.6826  -104.7033    45.4035 H6            1 RES     
    2103 H6          99.0434  -103.2189    44.5031 H6            1 RES     
    2104 H6          98.6587  -103.4710    47.5364 H6            1 RES     
    2105 H6          97.5677  -102.7466    46.3677 H6            1 RES     
    2106 H6         100.3630  -101.6335    47.0753 H6            1 RES     
    2107 H6          98.7848  -101.0441    47.6767 H6            1 RES     
    2108 H6          99.6893  -101.0242    44.7220 H6            1 RES     
    2109 H6          98.0894  -100.4580    45.3473 H6            1 RES     
    2110 H6          99.2601   -98.7481    46.7576 H6            1 RES     
    2111 H6          99.6620   -98.5644    45.0081 H6            1 RES     
    2112 H6         100.8559   -99.3257    46.1274 H6            1 RES     
    2113 H6         100.2449  -106.5559    45.5988 H6            1 RES     
    2114 H6          99.6503  -106.1191    47.2359 H6            1 RES     
    2115 H6         102.1565  -107.7537    46.3806 H6            1 RES     
    2116 H6         101.7590  -107.3318    48.0619 H6            1 RES     
    2117 H6          99.5830  -108.4640    47.9330 H6            1 RES     
    2118 H6          99.9012  -108.9612    46.2266 H6            1 RES     
    2119 H6         101.8475  -110.3512    46.9808 H6            1 RES     
    2120 H6         101.6484  -109.7246    48.6332 H6            1 RES     
    2121 H6          99.2878  -110.7058    48.7127 H6            1 RES     
    2122 H6          99.6124  -111.4373    47.1022 H6            1 RES     
    2123 H6         101.5273  -112.7503    48.1371 H6            1 RES     
    2124 H6          99.9129  -113.0891    48.8633 H6            1 RES     
    2125 H6         100.4067  -111.5389    50.7718 H6            1 RES     
    2126 H6         102.0674  -111.2641    50.1190 H6            1 RES     
    2127 H6         102.0913  -112.9430    51.9092 H6            1 RES     
    2128 H6         100.9178  -113.9717    51.0054 H6            1 RES     
    2129 H6         102.5792  -113.6847    50.3372 H6            1 RES     
    2130 C0         101.9621  -105.5938    50.1293 C0            1 RES     
    2131 C0         102.7885  -106.8877    50.4323 C0            1 RES     
    2132 C0         101.8290  -108.0738    50.7963 C0            1 RES     
    2133 C0         101.1169  -108.1403    52.1699 C0            1 RES     
    2134 C0          99.9950  -107.1209    52.4542 C0            1 RES     
    2135 C0          98.8429  -107.0873    51.4280 C0            1 RES     
    2136 C0          98.1096  -108.4256    51.2698 C0            1 RES     
    2137 C0          96.9549  -108.2920    50.2789 C0            1 RES     
    2138 C0         103.8743  -106.8025    51.5449 C0            1 RES     
    2139 C0         105.0753  -105.9344    51.2092 C0            1 RES     
    2140 C0         106.1850  -106.0377    52.2564 C0            1 RES     
    2141 C0         107.3779  -105.1775    51.8240 C0            1 RES     
    2142 C0         108.5227  -105.2527    52.8414 C0            1 RES     
    2143 C0         109.7613  -104.4520    52.4046 C0            1 RES     
    2144 C0         109.4943  -102.9433    52.2820 C0            1 RES     
    2145 C0         110.7678  -102.1891    51.9148 C0            1 RES     
    2146 H6         101.6517  -105.1907    51.1089 H6            1 RES     
    2147 H6         101.0166  -105.9125    49.6632 H6            1 RES     
    2148 H6         103.2921  -107.1967    49.4955 H6            1 RES     
    2149 H6         102.4582  -108.9896    50.7579 H6            1 RES     
    2150 H6         101.0515  -108.1857    50.0219 H6            1 RES     
    2151 H6         101.8669  -108.0937    52.9855 H6            1 RES     
    2152 H6         100.6574  -109.1498    52.2382 H6            1 RES     
    2153 H6         100.4204  -106.1078    52.5520 H6            1 RES     
    2154 H6          99.5653  -107.3675    53.4494 H6            1 RES     
    2155 H6          99.2111  -106.7706    50.4366 H6            1 RES     
    2156 H6          98.1142  -106.3199    51.7708 H6            1 RES     
    2157 H6          98.8050  -109.2015    50.8864 H6            1 RES     
    2158 H6          97.7080  -108.7518    52.2534 H6            1 RES     
    2159 H6          96.2231  -107.5366    50.6377 H6            1 RES     
    2160 H6          96.4362  -109.2674    50.1726 H6            1 RES     
    2161 H6          97.3353  -107.9817    49.2816 H6            1 RES     
    2162 H6         104.2743  -107.8302    51.6955 H6            1 RES     
    2163 H6         103.4249  -106.4605    52.5023 H6            1 RES     
    2164 H6         105.4978  -106.2882    50.2477 H6            1 RES     
    2165 H6         104.7495  -104.8827    51.1566 H6            1 RES     
    2166 H6         105.8037  -105.6924    53.2416 H6            1 RES     
    2167 H6         106.5137  -107.0976    52.3473 H6            1 RES     
    2168 H6         107.7476  -105.5328    50.8360 H6            1 RES     
    2169 H6         107.0288  -104.1292    51.7219 H6            1 RES     
    2170 H6         108.1716  -104.8862    53.8306 H6            1 RES     
    2171 H6         108.8289  -106.3163    52.9526 H6            1 RES     
    2172 H6         110.1339  -104.8473    51.4337 H6            1 RES     
    2173 H6         110.5519  -104.6113    53.1703 H6            1 RES     
    2174 H6         109.1118  -102.5532    53.2500 H6            1 RES     
    2175 H6         108.7424  -102.7444    51.4904 H6            1 RES     
    2176 H6         110.5457  -101.1042    51.8333 H6            1 RES     
    2177 H6         111.5426  -102.3364    52.6969 H6            1 RES     
    2178 H6         111.1594  -102.5468    50.9386 H6            1 RES     
    2179 C0         113.7006  -108.0858    43.4479 C0            1 RES     
    2180 C1         112.9360  -107.3023    44.5227 C1            1 RES     
    2181 C1         113.7514  -106.6559    45.3852 C1            1 RES     
    2182 S2         112.9028  -105.7864    46.5337 S2            1 RES     
    2183 C1         111.3948  -106.2534    45.8870 C1            1 RES     
    2184 C1         111.5804  -107.0847    44.7764 C1            1 RES     
    2185 C1         115.0927  -106.9308    45.0164 C1            1 RES     
    2186 C1         115.1185  -107.7684    43.9386 C1            1 RES     
    2187 C1         116.4191  -108.1071    43.5516 C1            1 RES     
    2188 C1         117.3843  -107.4959    44.3925 C1            1 RES     
    2189 S2         116.6060  -106.5250    45.5614 S2            1 RES     
    2190 H3         110.7765  -107.5060    44.1890 H3            1 RES     
    2191 H3         116.6339  -108.7641    42.7222 H3            1 RES     
    2192 N4         121.0462  -106.8416    45.0081 N4            1 RES     
    2193 C1         119.6898  -106.7030    44.9912 C1            1 RES     
    2194 C1         118.8621  -107.6643    44.3660 C1            1 RES     
    2195 C1         119.4981  -108.7749    43.7824 C1            1 RES     
    2196 N4         118.8522  -109.8088    43.1863 N4            1 RES     
    2197 S2         120.0948  -110.8077    42.7502 S2            1 RES     
    2198 N4         121.4427  -110.0116    43.2764 N4            1 RES     
    2199 C1         120.9158  -108.8953    43.8348 C1            1 RES     
    2200 C1         121.6759  -107.9091    44.4488 C1            1 RES     
    2201 H5         119.2630  -105.8269    45.4600 H5            1 RES     
    2202 C0         113.3636  -107.3039    42.1210 C0            1 RES     
    2203 C0         114.0296  -107.4357    40.7060 C0            1 RES     
    2204 C0         113.7511  -106.1278    39.8782 C0            1 RES     
    2205 C0         112.3489  -105.8806    39.2467 C0            1 RES     
    2206 C0         111.1355  -105.6511    40.1715 C0            1 RES     
    2207 C0         111.2821  -104.5049    41.1908 C0            1 RES     
    2208 C0         111.4614  -103.1298    40.5340 C0            1 RES     
    2209 C0         111.5435  -102.0301    41.5904 C0            1 RES     
    2210 C0         113.6044  -108.6482    39.8294 C0            1 RES     
    2211 C0         114.3697  -109.9440    40.0813 C0            1 RES     
    2212 C0         113.7775  -111.0935    39.2454 C0            1 RES     
    2213 C0         114.4865  -112.4296    39.5173 C0            1 RES     
    2214 C0         113.7267  -113.5923    38.8553 C0            1 RES     
    2215 C0         114.2602  -114.9836    39.2441 C0            1 RES     
    2216 C0         114.0332  -115.3090    40.7339 C0            1 RES     
    2217 C0         114.4611  -116.7338    41.0710 C0            1 RES     
    2218 H6         112.2739  -107.3733    41.9954 H6            1 RES     
    2219 H6         113.6069  -106.2555    42.4019 H6            1 RES     
    2220 H6         115.1338  -107.4349    40.8438 H6            1 RES     
    2221 H6         114.4474  -106.1619    39.0101 H6            1 RES     
    2222 H6         114.0576  -105.2329    40.4613 H6            1 RES     
    2223 H6         112.1009  -106.7192    38.5625 H6            1 RES     
    2224 H6         112.4456  -104.9802    38.6036 H6            1 RES     
    2225 H6         110.8815  -106.5854    40.6988 H6            1 RES     
    2226 H6         110.2525  -105.4360    39.5309 H6            1 RES     
    2227 H6         112.1296  -104.6997    41.8735 H6            1 RES     
    2228 H6         110.3554  -104.4821    41.8053 H6            1 RES     
    2229 H6         112.3953  -103.1076    39.9349 H6            1 RES     
    2230 H6         110.5975  -102.9221    39.8661 H6            1 RES     
    2231 H6         110.6151  -102.0084    42.2002 H6            1 RES     
    2232 H6         111.6653  -101.0443    41.0940 H6            1 RES     
    2233 H6         112.4141  -102.2020    42.2589 H6            1 RES     
    2234 H6         113.8232  -108.4236    38.7610 H6            1 RES     
    2235 H6         112.5049  -108.7880    39.9245 H6            1 RES     
    2236 H6         115.4460  -109.8015    39.8418 H6            1 RES     
    2237 H6         114.2847  -110.1946    41.1299 H6            1 RES     
    2238 H6         112.7075  -111.1956    39.5349 H6            1 RES     
    2239 H6         113.8281  -110.8600    38.1595 H6            1 RES     
    2240 H6         115.5387  -112.3960    39.1613 H6            1 RES     
    2241 H6         114.5142  -112.5891    40.6022 H6            1 RES     
    2242 H6         112.6514  -113.5537    39.1391 H6            1 RES     
    2243 H6         113.7926  -113.4702    37.7517 H6            1 RES     
    2244 H6         115.3382  -115.0653    38.9882 H6            1 RES     
    2245 H6         113.7001  -115.7325    38.6426 H6            1 RES     
    2246 H6         112.9527  -115.2021    40.9770 H6            1 RES     
    2247 H6         114.6154  -114.6239    41.3780 H6            1 RES     
    2248 H6         114.2754  -116.9299    42.1468 H6            1 RES     
    2249 H6         113.8783  -117.4653    40.4711 H6            1 RES     
    2250 H6         115.5453  -116.8692    40.8651 H6            1 RES     
    2251 C0         113.1714  -109.5753    43.5201 C0            1 RES     
    2252 C0         114.0722  -110.8471    43.6607 C0            1 RES     
    2253 C0         113.3614  -112.0912    43.0228 C0            1 RES     
    2254 C0         112.1719  -112.7879    43.7286 C0            1 RES     
    2255 C0         110.8287  -112.0331    43.7992 C0            1 RES     
    2256 C0         110.2498  -111.5654    42.4472 C0            1 RES     
    2257 C0         109.9944  -112.7039    41.4510 C0            1 RES     
    2258 C0         109.3746  -112.1630    40.1640 C0            1 RES     
    2259 C0         114.5282  -111.2494    45.0940 C0            1 RES     
    2260 C0         115.5137  -110.2962    45.7489 C0            1 RES     
    2261 C0         116.0631  -110.8365    47.0699 C0            1 RES     
    2262 C0         117.0844  -109.8468    47.6420 C0            1 RES     
    2263 C0         117.6705  -110.3478    48.9674 C0            1 RES     
    2264 C0         118.7477  -109.4080    49.5354 C0            1 RES     
    2265 C0         118.2079  -108.0135    49.8908 C0            1 RES     
    2266 C0         119.2972  -107.1459    50.5124 C0            1 RES     
    2267 H6         112.3885  -109.6660    44.2929 H6            1 RES     
    2268 H6         112.6190  -109.6702    42.5721 H6            1 RES     
    2269 H6         114.9834  -110.6875    43.0516 H6            1 RES     
    2270 H6         114.1450  -112.8760    42.9456 H6            1 RES     
    2271 H6         113.0374  -111.8585    41.9944 H6            1 RES     
    2272 H6         112.4698  -113.0980    44.7508 H6            1 RES     
    2273 H6         111.9814  -113.7294    43.1698 H6            1 RES     
    2274 H6         110.9181  -111.1643    44.4730 H6            1 RES     
    2275 H6         110.0894  -112.7128    44.2759 H6            1 RES     
    2276 H6         110.9172  -110.8262    41.9705 H6            1 RES     
    2277 H6         109.2853  -111.0528    42.6576 H6            1 RES     
    2278 H6         110.9492  -113.2065    41.1892 H6            1 RES     
    2279 H6         109.3036  -113.4487    41.9016 H6            1 RES     
    2280 H6         108.4034  -111.6684    40.3809 H6            1 RES     
    2281 H6         109.1984  -112.9965    39.4527 H6            1 RES     
    2282 H6         110.0566  -111.4267    39.6861 H6            1 RES     
    2283 H6         115.0580  -112.2247    45.0105 H6            1 RES     
    2284 H6         113.6478  -111.3877    45.7584 H6            1 RES     
    2285 H6         116.3750  -110.1672    45.0638 H6            1 RES     
    2286 H6         115.0014  -109.3421    45.9546 H6            1 RES     
    2287 H6         115.2296  -110.9829    47.7905 H6            1 RES     
    2288 H6         116.5636  -111.8151    46.8925 H6            1 RES     
    2289 H6         117.9113  -109.7084    46.9098 H6            1 RES     
    2290 H6         116.5736  -108.8739    47.7962 H6            1 RES     
    2291 H6         116.8567  -110.4763    49.7139 H6            1 RES     
    2292 H6         118.1436  -111.3394    48.7936 H6            1 RES     
    2293 H6         119.5794  -109.3129    48.8026 H6            1 RES     
    2294 H6         119.1512  -109.8783    50.4588 H6            1 RES     
    2295 H6         117.3701  -108.1121    50.6146 H6            1 RES     
    2296 H6         117.8399  -107.4953    48.9811 H6            1 RES     
    2297 H6         118.8798  -106.1468    50.7587 H6            1 RES     
    2298 H6         119.6770  -107.6132    51.4457 H6            1 RES     
    2299 H6         120.1387  -107.0145    49.7991 H6            1 RES     
    2300 C0         126.8555  -108.5079    43.0241 C0            1 RES     
    2301 C1         125.5451  -108.3128    43.7975 C1            1 RES     
    2302 C1         125.7376  -108.1079    45.1194 C1            1 RES     
    2303 S2         124.3019  -107.8713    45.9429 S2            1 RES     
    2304 C1         123.3700  -108.0296    44.5227 C1            1 RES     
    2305 C1         124.2013  -108.2644    43.4215 C1            1 RES     
    2306 C1         127.1313  -108.1555    45.3761 C1            1 RES     
    2307 C1         127.8105  -108.4144    44.2204 C1            1 RES     
    2308 C1         129.1916  -108.5118    44.4184 C1            1 RES     
    2309 C1         129.5326  -108.3250    45.7827 C1            1 RES     
    2310 S2         128.1256  -108.0056    46.6954 S2            1 RES     
    2311 H3         123.8485  -108.3928    42.4077 H3            1 RES     
    2312 H3         129.8876  -108.7176    43.6191 H3            1 RES     
    2313 N4         132.3149  -107.9364    48.2975 N4            1 RES     
    2314 C1         131.1042  -107.8361    47.6784 C1            1 RES     
    2315 C1         130.8750  -108.4294    46.4153 C1            1 RES     
    2316 C1         131.9424  -109.1412    45.8386 C1            1 RES     
    2317 N4         131.8769  -109.8083    44.6587 N4            1 RES     
    2318 S2         133.3850  -110.4734    44.5357 S2            1 RES     
    2319 N4         134.1500  -109.9707    45.9103 N4            1 RES     
    2320 C1         133.1872  -109.2400    46.5224 C1            1 RES     
    2321 C1         133.3562  -108.6209    47.7535 C1            1 RES     
    2322 H5         130.3240  -107.2767    48.1763 H5            1 RES     
    2323 C0         126.9386  -107.2184    42.1208 C0            1 RES     
    2324 C0         128.1525  -106.6809    41.2838 C0            1 RES     
    2325 C0         127.9498  -105.1468    41.0031 C0            1 RES     
    2326 C0         126.9342  -104.6728    39.9215 C0            1 RES     
    2327 C0         125.4269  -104.9140    40.1457 C0            1 RES     
    2328 C0         124.8498  -104.3496    41.4581 C0            1 RES     
    2329 C0         124.9585  -102.8225    41.5600 C0            1 RES     
    2330 C0         124.3203  -102.3177    42.8523 C0            1 RES     
    2331 C0         128.4414  -107.3752    39.9222 C0            1 RES     
    2332 C0         129.3111  -108.6271    39.9925 C0            1 RES     
    2333 C0         129.4218  -109.2875    38.6059 C0            1 RES     
    2334 C0         130.2434  -110.5856    38.6489 C0            1 RES     
    2335 C0         130.1369  -111.3403    37.3123 C0            1 RES     
    2336 C0         130.7687  -112.7444    37.3404 C0            1 RES     
    2337 C0         130.0152  -113.7135    38.2733 C0            1 RES     
    2338 C0         130.5846  -115.1265    38.1966 C0            1 RES     
    2339 H6         126.0565  -107.2484    41.4659 H6            1 RES     
    2340 H6         126.7827  -106.4051    42.8634 H6            1 RES     
    2341 H6         129.0585  -106.7172    41.9288 H6            1 RES     
    2342 H6         128.9348  -104.7687    40.6475 H6            1 RES     
    2343 H6         127.7574  -104.6055    41.9543 H6            1 RES     
    2344 H6         127.2073  -105.1168    38.9411 H6            1 RES     
    2345 H6         127.0776  -103.5769    39.8111 H6            1 RES     
    2346 H6         125.2033  -105.9913    40.0757 H6            1 RES     
    2347 H6         124.8763  -104.4527    39.2969 H6            1 RES     
    2348 H6         125.3467  -104.8127    42.3304 H6            1 RES     
    2349 H6         123.7739  -104.6284    41.4985 H6            1 RES     
    2350 H6         126.0234  -102.5105    41.5525 H6            1 RES     
    2351 H6         124.4379  -102.3549    40.6962 H6            1 RES     
    2352 H6         123.2451  -102.5954    42.8878 H6            1 RES     
    2353 H6         124.4031  -101.2116    42.9021 H6            1 RES     
    2354 H6         124.8380  -102.7535    43.7336 H6            1 RES     
    2355 H6         129.0329  -106.6869    39.2771 H6            1 RES     
    2356 H6         127.4737  -107.5681    39.4085 H6            1 RES     
    2357 H6         130.3193  -108.3671    40.3826 H6            1 RES     
    2358 H6         128.8512  -109.3267    40.6771 H6            1 RES     
    2359 H6         128.3884  -109.5339    38.2737 H6            1 RES     
    2360 H6         129.8716  -108.5872    37.8688 H6            1 RES     
    2361 H6         131.3058  -110.3706    38.8940 H6            1 RES     
    2362 H6         129.8449  -111.2177    39.4519 H6            1 RES     
    2363 H6         129.0679  -111.4588    37.0271 H6            1 RES     
    2364 H6         130.6341  -110.7309    36.5258 H6            1 RES     
    2365 H6         131.8386  -112.6769    37.6322 H6            1 RES     
    2366 H6         130.7127  -113.1530    36.3078 H6            1 RES     
    2367 H6         128.9426  -113.7527    37.9800 H6            1 RES     
    2368 H6         130.0876  -113.3806    39.3255 H6            1 RES     
    2369 H6         130.0122  -115.7921    38.8746 H6            1 RES     
    2370 H6         130.5040  -115.5208    37.1609 H6            1 RES     
    2371 H6         131.6514  -115.1294    38.5098 H6            1 RES     
    2372 C0         126.7166  -109.8807    42.2495 C0            1 RES     
    2373 C0         127.7462  -111.0577    42.3075 C0            1 RES     
    2374 C0         127.6917  -111.8947    40.9822 C0            1 RES     
    2375 C0         126.5184  -112.8622    40.6892 C0            1 RES     
    2376 C0         125.1356  -112.2518    40.3826 C0            1 RES     
    2377 C0         125.0927  -111.2367    39.2210 C0            1 RES     
    2378 C0         125.5632  -111.8071    37.8767 C0            1 RES     
    2379 C0         125.4394  -110.7570    36.7744 C0            1 RES     
    2380 C0         127.6317  -112.0542    43.4984 C0            1 RES     
    2381 C0         127.9880  -111.4779    44.8583 C0            1 RES     
    2382 C0         128.0357  -112.5444    45.9533 C0            1 RES     
    2383 C0         128.4498  -111.8974    47.2798 C0            1 RES     
    2384 C0         128.5182  -112.9301    48.4113 C0            1 RES     
    2385 C0         128.9948  -112.3244    49.7426 C0            1 RES     
    2386 C0         128.0408  -111.2540    50.2964 C0            1 RES     
    2387 C0         128.5223  -110.7367    51.6477 C0            1 RES     
    2388 H6         125.7261  -110.3289    42.4402 H6            1 RES     
    2389 H6         126.6590  -109.5493    41.2008 H6            1 RES     
    2390 H6         128.7629  -110.6192    42.3341 H6            1 RES     
    2391 H6         128.5956  -112.5416    41.0000 H6            1 RES     
    2392 H6         127.7900  -111.2296    40.1078 H6            1 RES     
    2393 H6         126.4185  -113.5942    41.5163 H6            1 RES     
    2394 H6         126.8130  -113.4533    39.7955 H6            1 RES     
    2395 H6         124.7211  -111.7799    41.2895 H6            1 RES     
    2396 H6         124.4489  -113.0903    40.1353 H6            1 RES     
    2397 H6         125.7025  -110.3468    39.4564 H6            1 RES     
    2398 H6         124.0389  -110.8968    39.1149 H6            1 RES     
    2399 H6         126.6278  -112.1151    37.9417 H6            1 RES     
    2400 H6         124.9453  -112.6907    37.6074 H6            1 RES     
    2401 H6         124.3814  -110.4363    36.6631 H6            1 RES     
    2402 H6         125.7857  -111.1826    35.8096 H6            1 RES     
    2403 H6         126.0632  -109.8689    37.0148 H6            1 RES     
    2404 H6         128.3618  -112.8739    43.3145 H6            1 RES     
    2405 H6         126.6133  -112.4979    43.5383 H6            1 RES     
    2406 H6         129.0008  -111.0334    44.7893 H6            1 RES     
    2407 H6         127.2264  -110.7319    45.1384 H6            1 RES     
    2408 H6         127.0363  -113.0198    46.0570 H6            1 RES     
    2409 H6         128.7809  -113.3254    45.6803 H6            1 RES     
    2410 H6         129.4502  -111.4240    47.1607 H6            1 RES     
    2411 H6         127.7068  -111.1113    47.5275 H6            1 RES     
    2412 H6         127.5208  -113.4008    48.5518 H6            1 RES     
    2413 H6         129.2409  -113.7248    48.1228 H6            1 RES     
    2414 H6         130.0099  -111.8892    49.6086 H6            1 RES     
    2415 H6         129.0670  -113.1521    50.4817 H6            1 RES     
    2416 H6         127.0250  -111.6884    50.4188 H6            1 RES     
    2417 H6         127.9823  -110.3891    49.6036 H6            1 RES     
    2418 H6         127.8157  -109.9667    52.0230 H6            1 RES     
    2419 H6         128.5690  -111.5667    52.3843 H6            1 RES     
    2420 H6         129.5291  -110.2777    51.5478 H6            1 RES     
    2421 C0         138.6286  -108.3924    48.9225 C0            1 RES     
    2422 C1         137.1090  -108.5980    48.9675 C1            1 RES     
    2423 C1         136.6673  -109.0087    50.1769 C1            1 RES     
    2424 S2         135.0071  -109.2029    50.2163 S2            1 RES     
    2425 C1         134.8336  -108.7231    48.5884 C1            1 RES     
    2426 C1         136.0832  -108.4155    48.0381 C1            1 RES     
    2427 C1         137.7873  -109.1354    51.0373 C1            1 RES     
    2428 C1         138.9328  -108.8281    50.3611 C1            1 RES     
    2429 C1         140.0785  -108.9730    51.1502 C1            1 RES     
    2430 C1         139.7527  -109.4156    52.4580 C1            1 RES     
    2431 S2         138.0601  -109.5757    52.6132 S2            1 RES     
    2432 H3         136.2358  -108.0796    47.0219 H3            1 RES     
    2433 H3         141.0747  -108.7791    50.7821 H3            1 RES     
    2434 N4         141.0235  -110.1428    55.9327 N4            1 RES     
    2435 C1         140.2047  -109.8010    54.8972 C1            1 RES     
    2436 C1         140.6818  -109.7641    53.5664 C1            1 RES     
    2437 C1         142.0283  -110.1136    53.3585 C1            1 RES     
    2438 N4         142.6306  -110.1763    52.1441 N4            1 RES     
    2439 S2         144.1585  -110.6792    52.5243 S2            1 RES     
    2440 N4         144.1237  -110.8352    54.1680 N4            1 RES     
    2441 C1         142.8491  -110.4824    54.4619 C1            1 RES     
    2442 C1         142.3269  -110.4833    55.7483 C1            1 RES     
    2443 H5         139.1788  -109.5452    55.1242 H5            1 RES     
    2444 C0         138.7782  -106.8322    48.7513 C0            1 RES     
    2445 C0         140.0663  -105.9467    48.8919 C0            1 RES     
    2446 C0         139.6438  -104.4566    49.1645 C0            1 RES     
    2447 C0         139.1030  -103.5681    48.0051 C0            1 RES     
    2448 C0         137.7483  -103.9189    47.3554 C0            1 RES     
    2449 C0         136.5528  -104.0224    48.3219 C0            1 RES     
    2450 C0         136.2415  -102.7043    49.0431 C0            1 RES     
    2451 C0         135.0153  -102.8532    49.9412 C0            1 RES     
    2452 C0         141.0618  -105.9435    47.6968 C0            1 RES     
    2453 C0         142.0893  -107.0716    47.6921 C0            1 RES     
    2454 C0         142.9317  -107.0310    46.4038 C0            1 RES     
    2455 C0         143.9397  -108.1890    46.3366 C0            1 RES     
    2456 C0         144.5936  -108.2600    44.9457 C0            1 RES     
    2457 C0         145.4673  -109.5102    44.7336 C0            1 RES     
    2458 C0         144.6433  -110.8133    44.7257 C0            1 RES     
    2459 C0         145.5092  -112.0256    44.3977 C0            1 RES     
    2460 H6         138.2927  -106.5829    47.7974 H6            1 RES     
    2461 H6         138.1334  -106.4464    49.5715 H6            1 RES     
    2462 H6         140.5926  -106.2501    49.8243 H6            1 RES     
    2463 H6         140.5654  -103.9362    49.5100 H6            1 RES     
    2464 H6         138.9432  -104.4085    50.0256 H6            1 RES     
    2465 H6         139.8634  -103.5143    47.1977 H6            1 RES     
    2466 H6         139.0147  -102.5378    48.4105 H6            1 RES     
    2467 H6         137.8387  -104.8530    46.7767 H6            1 RES     
    2468 H6         137.5180  -103.1364    46.5998 H6            1 RES     
    2469 H6         136.7266  -104.8183    49.0692 H6            1 RES     
    2470 H6         135.6619  -104.3137    47.7232 H6            1 RES     
    2471 H6         137.1009  -102.3984    49.6751 H6            1 RES     
    2472 H6         136.0423  -101.9087    48.2928 H6            1 RES     
    2473 H6         134.1270  -103.1414    49.3394 H6            1 RES     
    2474 H6         134.8037  -101.8876    50.4467 H6            1 RES     
    2475 H6         135.1970  -103.6284    50.7161 H6            1 RES     
    2476 H6         141.6888  -105.0246    47.7435 H6            1 RES     
    2477 H6         140.4803  -105.9053    46.7492 H6            1 RES     
    2478 H6         142.7427  -106.9933    48.5883 H6            1 RES     
    2479 H6         141.5632  -108.0155    47.7360 H6            1 RES     
    2480 H6         142.2285  -107.1240    45.5460 H6            1 RES     
    2481 H6         143.4711  -106.0629    46.3141 H6            1 RES     
    2482 H6         144.7127  -108.0840    47.1281 H6            1 RES     
    2483 H6         143.4009  -109.1249    46.5292 H6            1 RES     
    2484 H6         143.8089  -108.2611    44.1567 H6            1 RES     
    2485 H6         145.2170  -107.3496    44.8051 H6            1 RES     
    2486 H6         146.2621  -109.5576    45.5085 H6            1 RES     
    2487 H6         145.9540  -109.4089    43.7389 H6            1 RES     
    2488 H6         143.8401  -110.7402    43.9592 H6            1 RES     
    2489 H6         144.1808  -110.9906    45.7145 H6            1 RES     
    2490 H6         144.8795  -112.9386    44.3949 H6            1 RES     
    2491 H6         145.9722  -111.9106    43.3943 H6            1 RES     
    2492 H6         146.3089  -112.1454    45.1608 H6            1 RES     
    2493 C0         139.1624  -109.2692    47.7184 C0            1 RES     
    2494 C0         140.3170  -110.3214    47.8107 C0            1 RES     
    2495 C0         141.0310  -110.4697    46.4221 C0            1 RES     
    2496 C0         140.3604  -111.2266    45.2492 C0            1 RES     
    2497 C0         139.1373  -110.5753    44.5719 C0            1 RES     
    2498 C0         139.3517  -109.1458    44.0311 C0            1 RES     
    2499 C0         140.4690  -109.0359    42.9855 C0            1 RES     
    2500 C0         140.5793  -107.6039    42.4654 C0            1 RES     
    2501 C0         139.9483  -111.7510    48.3052 C0            1 RES     
    2502 C0         139.5452  -111.8440    49.7672 C0            1 RES     
    2503 C0         139.3754  -113.2890    50.2382 C0            1 RES     
    2504 C0         139.0203  -113.3025    51.7294 C0            1 RES     
    2505 C0         138.8451  -114.7334    52.2522 C0            1 RES     
    2506 C0         138.5523  -114.7844    53.7615 C0            1 RES     
    2507 C0         137.2293  -114.1023    54.1447 C0            1 RES     
    2508 C0         136.9534  -114.2411    55.6381 C0            1 RES     
    2509 H6         138.3225  -109.7777    47.2139 H6            1 RES     
    2510 H6         139.4785  -108.5008    46.9956 H6            1 RES     
    2511 H6         141.0897  -109.9192    48.4947 H6            1 RES     
    2512 H6         141.9669  -111.0339    46.6262 H6            1 RES     
    2513 H6         141.3301  -109.4790    46.0404 H6            1 RES     
    2514 H6         140.0959  -112.2555    45.5673 H6            1 RES     
    2515 H6         141.1377  -111.3428    44.4636 H6            1 RES     
    2516 H6         138.2780  -110.5740    45.2637 H6            1 RES     
    2517 H6         138.8416  -111.2268    43.7211 H6            1 RES     
    2518 H6         139.5730  -108.4450    44.8550 H6            1 RES     
    2519 H6         138.3954  -108.8189    43.5667 H6            1 RES     
    2520 H6         141.4448  -109.3155    43.4353 H6            1 RES     
    2521 H6         140.2536  -109.7160    42.1335 H6            1 RES     
    2522 H6         139.6260  -107.2918    41.9874 H6            1 RES     
    2523 H6         141.3926  -107.5392    41.7129 H6            1 RES     
    2524 H6         140.8111  -106.9065    43.2994 H6            1 RES     
    2525 H6         140.8590  -112.3821    48.1999 H6            1 RES     
    2526 H6         139.1471  -112.1880    47.6706 H6            1 RES     
    2527 H6         140.3537  -111.3933    50.3766 H6            1 RES     
    2528 H6         138.5836  -111.3229    49.9042 H6            1 RES     
    2529 H6         138.5713  -113.7826    49.6507 H6            1 RES     
    2530 H6         140.3280  -113.8449    50.0854 H6            1 RES     
    2531 H6         139.8323  -112.8037    52.3046 H6            1 RES     
    2532 H6         138.0792  -112.7306    51.8655 H6            1 RES     
    2533 H6         138.0260  -115.2394    51.6962 H6            1 RES     
    2534 H6         139.7879  -115.2950    52.0709 H6            1 RES     
    2535 H6         139.3926  -114.3127    54.3174 H6            1 RES     
    2536 H6         138.4983  -115.8550    54.0574 H6            1 RES     
    2537 H6         136.3931  -114.5681    53.5797 H6            1 RES     
    2538 H6         137.2668  -113.0191    53.9062 H6            1 RES     
    2539 H6         135.9936  -113.7404    55.8857 H6            1 RES     
    2540 H6         136.8787  -115.3131    55.9187 H6            1 RES     
    2541 H6         137.7663  -113.7637    56.2259 H6            1 RES     
    2542 C0         146.3824  -110.6878    59.3158 C0            1 RES     
    2543 C1         145.0846  -110.9261    58.5333 C1            1 RES     
    2544 C1         144.2829  -111.8493    59.1089 C1            1 RES     
    2545 S2         142.8619  -112.0782    58.2581 S2            1 RES     
    2546 C1         143.2874  -110.9183    57.0817 C1            1 RES     
    2547 C1         144.5396  -110.3666    57.3760 C1            1 RES     
    2548 C1         144.9262  -112.3258    60.2793 C1            1 RES     
    2549 C1         146.1410  -111.7199    60.4241 C1            1 RES     
    2550 C1         146.8413  -112.1797    61.5441 C1            1 RES     
    2551 C1         146.1068  -113.1732    62.2410 C1            1 RES     
    2552 S2         144.6002  -113.4248    61.4784 S2            1 RES     
    2553 H3         145.0246  -109.6041    56.7826 H3            1 RES     
    2554 H3         147.8219  -111.8177    61.8143 H3            1 RES     
    2555 N4         145.9146  -115.3638    65.3039 N4            1 RES     
    2556 C1         145.5576  -114.6096    64.2255 C1            1 RES     
    2557 C1         146.5307  -113.9639    63.4277 C1            1 RES     
    2558 C1         147.8784  -114.1508    63.7844 C1            1 RES     
    2559 N4         148.9351  -113.6438    63.1004 N4            1 RES     
    2560 S2         150.2280  -114.2293    63.9474 S2            1 RES     
    2561 N4         149.5369  -115.1124    65.1597 N4            1 RES     
    2562 C1         148.2147  -114.9599    64.9066 C1            1 RES     
    2563 C1         147.2126  -115.5543    65.6615 C1            1 RES     
    2564 H5         144.5042  -114.5075    64.0035 H5            1 RES     
    2565 C0         146.2150  -109.2159    59.8555 C0            1 RES     
    2566 C0         147.0702  -108.4605    60.9330 C0            1 RES     
    2567 C0         146.2311  -107.2648    61.5157 C0            1 RES     
    2568 C0         146.0397  -105.9607    60.6859 C0            1 RES     
    2569 C0         145.2155  -106.0106    59.3826 C0            1 RES     
    2570 C0         143.7852  -106.5672    59.5198 C0            1 RES     
    2571 C0         142.8938  -105.7252    60.4422 C0            1 RES     
    2572 C0         141.4767  -106.2921    60.4933 C0            1 RES     
    2573 C0         148.4466  -107.8945    60.4806 C0            1 RES     
    2574 C0         149.6143  -108.8748    60.5416 C0            1 RES     
    2575 C0         150.8876  -108.2368    59.9562 C0            1 RES     
    2576 C0         152.0720  -109.2159    59.9471 C0            1 RES     
    2577 C0         153.2507  -108.6353    59.1465 C0            1 RES     
    2578 C0         154.4012  -109.6342    58.9231 C0            1 RES     
    2579 C0         153.9944  -110.8113    58.0142 C0            1 RES     
    2580 C0         155.1782  -111.7241    57.7105 C0            1 RES     
    2581 H6         146.1366  -108.5733    58.9673 H6            1 RES     
    2582 H6         145.2118  -109.2575    60.3340 H6            1 RES     
    2583 H6         147.2063  -109.1407    61.8032 H6            1 RES     
    2584 H6         146.7660  -106.9360    62.4352 H6            1 RES     
    2585 H6         145.2420  -107.6273    61.8692 H6            1 RES     
    2586 H6         147.0340  -105.5303    60.4428 H6            1 RES     
    2587 H6         145.5456  -105.2273    61.3580 H6            1 RES     
    2588 H6         145.7621  -106.5797    58.6126 H6            1 RES     
    2589 H6         145.1490  -104.9764    58.9796 H6            1 RES     
    2590 H6         143.8090  -107.6108    59.8837 H6            1 RES     
    2591 H6         143.3303  -106.5766    58.5050 H6            1 RES     
    2592 H6         143.3036  -105.7186    61.4735 H6            1 RES     
    2593 H6         142.8492  -104.6811    60.0634 H6            1 RES     
    2594 H6         141.0245  -106.2972    59.4785 H6            1 RES     
    2595 H6         140.8476  -105.6645    61.1591 H6            1 RES     
    2596 H6         141.4907  -107.3296    60.8907 H6            1 RES     
    2597 H6         148.7561  -107.0820    61.1761 H6            1 RES     
    2598 H6         148.3317  -107.4452    59.4695 H6            1 RES     
    2599 H6         149.7860  -109.1953    61.5923 H6            1 RES     
    2600 H6         149.3604  -109.7482    59.9566 H6            1 RES     
    2601 H6         150.6595  -107.9479    58.9057 H6            1 RES     
    2602 H6         151.1668  -107.3207    60.5210 H6            1 RES     
    2603 H6         152.3864  -109.4625    60.9841 H6            1 RES     
    2604 H6         151.7420  -110.1498    59.4757 H6            1 RES     
    2605 H6         152.9003  -108.2974    58.1458 H6            1 RES     
    2606 H6         153.6386  -107.7458    59.6901 H6            1 RES     
    2607 H6         154.7779  -110.0086    59.8989 H6            1 RES     
    2608 H6         155.2245  -109.0829    58.4184 H6            1 RES     
    2609 H6         153.6007  -110.4178    57.0507 H6            1 RES     
    2610 H6         153.2126  -111.4271    58.4966 H6            1 RES     
    2611 H6         154.8463  -112.5513    57.0504 H6            1 RES     
    2612 H6         155.9814  -111.1572    57.1928 H6            1 RES     
    2613 H6         155.5814  -112.1577    58.6517 H6            1 RES     
    2614 C0         147.5684  -110.9129    58.2928 C0            1 RES     
    2615 C0         148.7880  -111.8665    58.5209 C0            1 RES     
    2616 C0         150.0366  -111.3545    57.7216 C0            1 RES     
    2617 C0         150.1286  -111.5143    56.1839 C0            1 RES     
    2618 C0         149.1928  -110.6552    55.3092 C0            1 RES     
    2619 C0         149.2700  -109.1312    55.5401 C0            1 RES     
    2620 C0         150.6639  -108.5348    55.3053 C0            1 RES     
    2621 C0         150.6407  -107.0204    55.5028 C0            1 RES     
    2622 C0         148.5957  -113.3732    58.1786 C0            1 RES     
    2623 C0         147.6450  -114.1265    59.0937 C0            1 RES     
    2624 C0         147.6402  -115.6317    58.8238 C0            1 RES     
    2625 C0         146.7000  -116.3261    59.8156 C0            1 RES     
    2626 C0         146.6651  -117.8423    59.5892 C0            1 RES     
    2627 C0         145.7807  -118.5770    60.6110 C0            1 RES     
    2628 C0         144.3000  -118.1723    60.5315 C0            1 RES     
    2629 C0         143.4579  -118.9776    61.5153 C0            1 RES     
    2630 H6         147.1697  -111.1574    57.2929 H6            1 RES     
    2631 H6         147.9689  -109.8938    58.1756 H6            1 RES     
    2632 H6         149.0772  -111.7996    59.5880 H6            1 RES     
    2633 H6         150.9017  -111.9285    58.1191 H6            1 RES     
    2634 H6         150.2245  -110.2917    57.9493 H6            1 RES     
    2635 H6         150.0070  -112.5816    55.9084 H6            1 RES     
    2636 H6         151.1688  -111.2449    55.9007 H6            1 RES     
    2637 H6         148.1481  -110.9865    55.4347 H6            1 RES     
    2638 H6         149.4506  -110.8581    54.2470 H6            1 RES     
    2639 H6         148.9469  -108.8738    56.5640 H6            1 RES     
    2640 H6         148.5539  -108.6515    54.8370 H6            1 RES     
    2641 H6         151.3918  -108.9653    56.0246 H6            1 RES     
    2642 H6         150.9991  -108.7609    54.2702 H6            1 RES     
    2643 H6         149.9365  -106.5477    54.7848 H6            1 RES     
    2644 H6         151.6553  -106.6038    55.3328 H6            1 RES     
    2645 H6         150.3233  -106.7704    56.5384 H6            1 RES     
    2646 H6         149.5861  -113.8675    58.2955 H6            1 RES     
    2647 H6         148.2691  -113.4941    57.1230 H6            1 RES     
    2648 H6         147.9855  -113.9817    60.1383 H6            1 RES     
    2649 H6         146.6229  -113.7457    58.9346 H6            1 RES     
    2650 H6         147.3044  -115.8245    57.7819 H6            1 RES     
    2651 H6         148.6694  -116.0364    58.9526 H6            1 RES     
    2652 H6         147.0467  -116.1230    60.8537 H6            1 RES     
    2653 H6         145.6841  -115.8992    59.6854 H6            1 RES     
    2654 H6         146.3058  -118.0608    58.5599 H6            1 RES     
    2655 H6         147.6993  -118.2396    59.6887 H6            1 RES     
    2656 H6         146.1666  -118.3886    61.6373 H6            1 RES     
    2657 H6         145.8624  -119.6666    60.4043 H6            1 RES     
    2658 H6         143.9201  -118.3513    59.5024 H6            1 RES     
    2659 H6         144.1766  -117.0978    60.7801 H6            1 RES     
    2660 H6         142.3953  -118.6652    61.4360 H6            1 RES     
    2661 H6         143.5284  -120.0621    61.2860 H6            1 RES     
    2662 H6         143.8051  -118.7993    62.5555 H6            1 RES     
    2663 C0         149.2897  -117.2573    70.3522 C0            1 RES     
    2664 C1         148.5447  -117.1455    69.0157 C1            1 RES     
    2665 C1         147.8193  -118.2473    68.7218 C1            1 RES     
    2666 S2         146.9935  -118.0991    67.2756 S2            1 RES     
    2667 C1         147.5890  -116.5232    67.0067 C1            1 RES     
    2668 C1         148.4269  -116.1358    68.0587 C1            1 RES     
    2669 C1         147.9977  -119.1867    69.7689 C1            1 RES     
    2670 C1         148.8535  -118.6842    70.7064 C1            1 RES     
    2671 C1         149.0992  -119.5847    71.7481 C1            1 RES     
    2672 C1         148.3976  -120.8024    71.5549 C1            1 RES     
    2673 S2         147.4650  -120.7162    70.1275 S2            1 RES     
    2674 H3         148.9213  -115.1765    68.1228 H3            1 RES     
    2675 H3         149.7551  -119.3616    72.5762 H3            1 RES     
    2676 N4         147.4501  -124.1450    73.0198 N4            1 RES     
    2677 C1         147.4168  -122.9930    72.2911 C1            1 RES     
    2678 C1         148.4522  -122.0343    72.3870 C1            1 RES     
    2679 C1         149.5226  -122.3315    73.2498 C1            1 RES     
    2680 N4         150.6156  -121.5460    73.4222 N4            1 RES     
    2681 S2         151.5248  -122.4216    74.4894 S2            1 RES     
    2682 N4         150.6161  -123.7730    74.7641 N4            1 RES     
    2683 C1         149.5322  -123.5527    73.9817 C1            1 RES     
    2684 C1         148.4775  -124.4469    73.8578 C1            1 RES     
    2685 H5         146.5665  -122.8256    71.6443 H5            1 RES     
    2686 C0         148.5644  -116.1927    71.2613 C0            1 RES     
    2687 C0         148.6745  -115.9870    72.8133 C0            1 RES     
    2688 C0         147.4099  -115.2035    73.3233 C0            1 RES     
    2689 C0         147.2850  -113.6698    73.0820 C0            1 RES     
    2690 C0         147.1301  -113.1438    71.6398 C0            1 RES     
    2691 C0         145.9546  -113.7347    70.8378 C0            1 RES     
    2692 C0         144.5841  -113.4215    71.4526 C0            1 RES     
    2693 C0         143.4591  -113.9823    70.5854 C0            1 RES     
    2694 C0         149.9345  -115.2463    73.3455 C0            1 RES     
    2695 C0         151.1618  -116.1213    73.5831 C0            1 RES     
    2696 C0         152.3711  -115.2586    73.9886 C0            1 RES     
    2697 C0         153.6425  -116.1005    74.1798 C0            1 RES     
    2698 C0         154.8741  -115.1938    74.3484 C0            1 RES     
    2699 C0         156.2115  -115.9572    74.3474 C0            1 RES     
    2700 C0         156.5218  -116.6050    72.9832 C0            1 RES     
    2701 C0         157.9019  -117.2545    72.9686 C0            1 RES     
    2702 H6         148.7203  -115.2200    70.7741 H6            1 RES     
    2703 H6         147.4947  -116.4692    71.1331 H6            1 RES     
    2704 H6         148.5857  -116.9838    73.2999 H6            1 RES     
    2705 H6         147.4086  -115.3139    74.4312 H6            1 RES     
    2706 H6         146.4819  -115.7091    72.9801 H6            1 RES     
    2707 H6         148.1546  -113.1535    73.5404 H6            1 RES     
    2708 H6         146.3937  -113.3311    73.6516 H6            1 RES     
    2709 H6         148.0698  -113.2905    71.0823 H6            1 RES     
    2710 H6         146.9973  -112.0410    71.6899 H6            1 RES     
    2711 H6         146.0689  -114.8293    70.7326 H6            1 RES     
    2712 H6         145.9903  -113.2946    69.8171 H6            1 RES     
    2713 H6         144.5027  -113.8726    72.4632 H6            1 RES     
    2714 H6         144.4578  -112.3202    71.5361 H6            1 RES     
    2715 H6         143.4961  -113.5383    69.5677 H6            1 RES     
    2716 H6         142.4776  -113.7382    71.0438 H6            1 RES     
    2717 H6         143.5491  -115.0868    70.5041 H6            1 RES     
    2718 H6         149.7165  -114.8293    74.3546 H6            1 RES     
    2719 H6         150.1567  -114.3911    72.6697 H6            1 RES     
    2720 H6         150.9419  -116.8782    74.3673 H6            1 RES     
    2721 H6         151.3960  -116.6413    72.6642 H6            1 RES     
    2722 H6         152.5492  -114.5312    73.1651 H6            1 RES     
    2723 H6         152.1576  -114.6909    74.9204 H6            1 RES     
    2724 H6         153.5355  -116.7821    75.0510 H6            1 RES     
    2725 H6         153.7762  -116.7275    73.2897 H6            1 RES     
    2726 H6         154.9125  -114.4481    73.5235 H6            1 RES     
    2727 H6         154.7708  -114.6377    75.3062 H6            1 RES     
    2728 H6         156.2153  -116.7237    75.1516 H6            1 RES     
    2729 H6         157.0141  -115.2187    74.5642 H6            1 RES     
    2730 H6         156.4933  -115.8275    72.1877 H6            1 RES     
    2731 H6         155.7803  -117.3901    72.7443 H6            1 RES     
    2732 H6         158.0888  -117.7012    71.9707 H6            1 RES     
    2733 H6         158.6887  -116.4967    73.1713 H6            1 RES     
    2734 H6         157.9576  -118.0576    73.7357 H6            1 RES     
    2735 C0         150.8136  -116.9683    70.0394 C0            1 RES     
    2736 C0         152.0089  -117.8939    70.4436 C0            1 RES     
    2737 C0         153.3174  -117.0474    70.6208 C0            1 RES     
    2738 C0         154.0885  -116.4925    69.3977 C0            1 RES     
    2739 C0         153.4382  -115.3523    68.5879 C0            1 RES     
    2740 C0         153.0453  -114.0961    69.3938 C0            1 RES     
    2741 C0         154.2211  -113.4264    70.1169 C0            1 RES     
    2742 C0         153.7570  -112.1659    70.8442 C0            1 RES     
    2743 C0         152.3444  -119.0869    69.5010 C0            1 RES     
    2744 C0         151.3043  -120.1940    69.4664 C0            1 RES     
    2745 C0         151.7725  -121.4142    68.6723 C0            1 RES     
    2746 C0         150.6950  -122.5033    68.7257 C0            1 RES     
    2747 C0         151.1211  -123.7536    67.9468 C0            1 RES     
    2748 C0         150.0892  -124.8909    68.0354 C0            1 RES     
    2749 C0         148.7332  -124.5279    67.4094 C0            1 RES     
    2750 C0         147.7712  -125.7101    67.4614 C0            1 RES     
    2751 H6         150.9479  -116.7432    68.9671 H6            1 RES     
    2752 H6         150.9710  -115.9975    70.5348 H6            1 RES     
    2753 H6         151.7926  -118.3101    71.4469 H6            1 RES     
    2754 H6         154.0409  -117.7192    71.1318 H6            1 RES     
    2755 H6         153.1323  -116.1984    71.3002 H6            1 RES     
    2756 H6         154.3530  -117.3223    68.7112 H6            1 RES     
    2757 H6         155.0536  -116.1004    69.7850 H6            1 RES     
    2758 H6         152.5510  -115.7282    68.0509 H6            1 RES     
    2759 H6         154.1625  -115.0470    67.8018 H6            1 RES     
    2760 H6         152.2672  -114.3370    70.1391 H6            1 RES     
    2761 H6         152.6043  -113.3668    68.6791 H6            1 RES     
    2762 H6         154.6540  -114.1188    70.8690 H6            1 RES     
    2763 H6         155.0071  -113.1522    69.3808 H6            1 RES     
    2764 H6         153.3343  -111.4358    70.1209 H6            1 RES     
    2765 H6         154.6166  -111.6944    71.3644 H6            1 RES     
    2766 H6         152.9807  -112.4185    71.5986 H6            1 RES     
    2767 H6         153.2775  -119.5578    69.8836 H6            1 RES     
    2768 H6         152.5359  -118.7248    68.4677 H6            1 RES     
    2769 H6         151.1239  -120.5295    70.5071 H6            1 RES     
    2770 H6         150.3884  -119.8059    68.9916 H6            1 RES     
    2771 H6         151.9673  -121.1226    67.6175 H6            1 RES     
    2772 H6         152.7131  -121.8098    69.1176 H6            1 RES     
    2773 H6         150.5089  -122.7837    69.7867 H6            1 RES     
    2774 H6         149.7613  -122.0869    68.2943 H6            1 RES     
    2775 H6         151.2961  -123.4912    66.8807 H6            1 RES     
    2776 H6         152.0767  -124.1292    68.3745 H6            1 RES     
    2777 H6         149.9459  -125.1782    69.1006 H6            1 RES     
    2778 H6         150.5073  -125.7671    67.4931 H6            1 RES     
    2779 H6         148.8807  -124.2308    66.3485 H6            1 RES     
    2780 H6         148.2644  -123.6851    67.9584 H6            1 RES     
    2781 H6         146.8022  -125.4199    67.0032 H6            1 RES     
    2782 H6         148.1879  -126.5717    66.8978 H6            1 RES     
    2783 H6         147.5905  -126.0135    68.5147 H6            1 RES     
    2784 C0         148.7055  -128.0390    77.8903 C0            1 RES     
    2785 C1         148.5955  -127.3521    76.5230 C1            1 RES     
    2786 C1         148.3483  -128.2181    75.5153 C1            1 RES     
    2787 S2         148.2057  -127.4508    74.0367 S2            1 RES     
    2788 C1         148.4655  -125.9105    74.7225 C1            1 RES     
    2789 C1         148.6588  -126.0217    76.1042 C1            1 RES     
    2790 C1         148.2829  -129.5251    76.0613 C1            1 RES     
    2791 C1         148.5132  -129.4815    77.4063 C1            1 RES     
    2792 C1         148.4996  -130.7498    77.9958 C1            1 RES     
    2793 C1         148.2582  -131.7642    77.0340 C1            1 RES     
    2794 S2         148.0288  -131.0632    75.4943 S2            1 RES     
    2795 H3         148.8356  -125.1840    76.7644 H3            1 RES     
    2796 H3         148.6681  -130.9104    79.0500 H3            1 RES     
    2797 N4         147.6029  -135.4286    76.4344 N4            1 RES     
    2798 C1         147.6094  -134.0726    76.2905 C1            1 RES     
    2799 C1         148.2453  -133.2376    77.2384 C1            1 RES     
    2800 C1         148.8848  -133.8683    78.3209 C1            1 RES     
    2801 N4         149.5798  -133.2210    79.2901 N4            1 RES     
    2802 S2         150.1292  -134.4634    80.2317 S2            1 RES     
    2803 N4         149.5399  -135.8134    79.4847 N4            1 RES     
    2804 C1         148.8728  -135.2879    78.4291 C1            1 RES     
    2805 C1         148.2164  -136.0532    77.4747 C1            1 RES     
    2806 H5         147.1013  -133.6503    75.4344 H5            1 RES     
    2807 C0         147.4329  -127.5175    78.6612 C0            1 RES     
    2808 C0         146.8212  -128.0333    80.0113 C0            1 RES     
    2809 C0         145.3137  -127.5942    80.0987 C0            1 RES     
    2810 C0         144.9425  -126.1205    80.4397 C0            1 RES     
    2811 C0         145.2944  -125.0029    79.4359 C0            1 RES     
    2812 C0         144.7483  -125.1940    78.0078 C0            1 RES     
    2813 C0         143.2155  -125.2239    77.9446 C0            1 RES     
    2814 C0         142.7341  -125.3576    76.5015 C0            1 RES     
    2815 C0         147.5201  -127.5848    81.3266 C0            1 RES     
    2816 C0         148.6994  -128.4445    81.7723 C0            1 RES     
    2817 C0         149.3787  -127.8310    83.0106 C0            1 RES     
    2818 C0         150.6083  -128.6391    83.4540 C0            1 RES     
    2819 C0         151.3972  -127.8788    84.5343 C0            1 RES     
    2820 C0         152.7475  -128.5285    84.8894 C0            1 RES     
    2821 C0         153.7518  -128.4821    83.7204 C0            1 RES     
    2822 C0         155.1181  -129.0231    84.1294 C0            1 RES     
    2823 H6         147.5446  -126.4263    78.7297 H6            1 RES     
    2824 H6         146.6184  -127.7304    77.9341 H6            1 RES     
    2825 H6         146.7740  -129.1442    79.9657 H6            1 RES     
    2826 H6         144.8684  -128.1937    80.9246 H6            1 RES     
    2827 H6         144.7688  -127.9111    79.1836 H6            1 RES     
    2828 H6         145.3848  -125.8476    81.4209 H6            1 RES     
    2829 H6         143.8414  -126.0965    80.5839 H6            1 RES     
    2830 H6         146.3870  -124.8602    79.3988 H6            1 RES     
    2831 H6         144.8950  -124.0453    79.8357 H6            1 RES     
    2832 H6         145.1531  -126.1197    77.5590 H6            1 RES     
    2833 H6         145.1083  -124.3392    77.3941 H6            1 RES     
    2834 H6         142.8226  -126.0850    78.5239 H6            1 RES     
    2835 H6         142.8080  -124.2827    78.3731 H6            1 RES     
    2836 H6         143.0931  -124.5006    75.8923 H6            1 RES     
    2837 H6         141.6241  -125.3696    76.4781 H6            1 RES     
    2838 H6         143.1099  -126.3035    76.0559 H6            1 RES     
    2839 H6         146.8021  -127.6743    82.1729 H6            1 RES     
    2840 H6         147.7978  -126.5116    81.2341 H6            1 RES     
    2841 H6         148.3543  -129.4790    81.9888 H6            1 RES     
    2842 H6         149.4176  -128.4872    80.9649 H6            1 RES     
    2843 H6         149.7110  -126.8060    82.7315 H6            1 RES     
    2844 H6         148.6615  -127.7511    83.8565 H6            1 RES     
    2845 H6         150.3069  -129.6432    83.8227 H6            1 RES     
    2846 H6         151.2521  -128.7926    82.5793 H6            1 RES     
    2847 H6         151.6038  -126.8400    84.1933 H6            1 RES     
    2848 H6         150.7682  -127.8184    85.4497 H6            1 RES     
    2849 H6         152.5916  -129.5755    85.2266 H6            1 RES     
    2850 H6         153.1811  -127.9497    85.7340 H6            1 RES     
    2851 H6         153.8798  -127.4298    83.3822 H6            1 RES     
    2852 H6         153.3920  -129.0910    82.8701 H6            1 RES     
    2853 H6         155.8112  -128.9659    83.2654 H6            1 RES     
    2854 H6         155.5392  -128.4211    84.9629 H6            1 RES     
    2855 H6         155.0320  -130.0847    84.4487 H6            1 RES     
    2856 C0         150.1010  -127.6052    78.4970 C0            1 RES     
    2857 C0         151.1937  -128.5859    79.0383 C0            1 RES     
    2858 C0         152.0603  -127.8814    80.1394 C0            1 RES     
    2859 C0         153.1214  -126.8160    79.7688 C0            1 RES     
    2860 C0         152.6261  -125.4480    79.2568 C0            1 RES     
    2861 C0         151.6421  -124.7014    80.1821 C0            1 RES     
    2862 C0         152.2031  -124.4043    81.5789 C0            1 RES     
    2863 C0         151.1893  -123.6199    82.4095 C0            1 RES     
    2864 C0         152.1704  -129.2157    78.0023 C0            1 RES     
    2865 C0         151.5396  -130.2109    77.0430 C0            1 RES     
    2866 C0         152.5758  -130.9291    76.1774 C0            1 RES     
    2867 C0         151.8707  -131.9490    75.2759 C0            1 RES     
    2868 C0         152.8708  -132.7018    74.3902 C0            1 RES     
    2869 C0         152.2020  -133.7795    73.5199 C0            1 RES     
    2870 C0         151.1968  -133.2037    72.5097 C0            1 RES     
    2871 C0         150.6153  -134.3032    71.6274 C0            1 RES     
    2872 H6         150.6201  -126.9165    77.8079 H6            1 RES     
    2873 H6         149.7974  -126.9599    79.3362 H6            1 RES     
    2874 H6         150.6776  -129.4157    79.5598 H6            1 RES     
    2875 H6         152.6351  -128.6950    80.6331 H6            1 RES     
    2876 H6         151.4084  -127.4359    80.9096 H6            1 RES     
    2877 H6         153.8411  -127.2393    79.0390 H6            1 RES     
    2878 H6         153.7069  -126.6195    80.6926 H6            1 RES     
    2879 H6         152.1683  -125.5606    78.2595 H6            1 RES     
    2880 H6         153.5201  -124.8038    79.1099 H6            1 RES     
    2881 H6         150.7032  -125.2709    80.2957 H6            1 RES     
    2882 H6         151.3869  -123.7379    79.6882 H6            1 RES     
    2883 H6         152.4266  -125.3520    82.1124 H6            1 RES     
    2884 H6         153.1372  -123.8091    81.4891 H6            1 RES     
    2885 H6         150.9536  -122.6516    81.9181 H6            1 RES     
    2886 H6         151.6073  -123.4152    83.4171 H6            1 RES     
    2887 H6         150.2508  -124.2040    82.5266 H6            1 RES     
    2888 H6         152.9352  -129.7873    78.5743 H6            1 RES     
    2889 H6         152.6904  -128.4213    77.4243 H6            1 RES     
    2890 H6         151.0199  -130.9848    77.6423 H6            1 RES     
    2891 H6         150.8488  -129.6711    76.3749 H6            1 RES     
    2892 H6         153.1245  -130.1877    75.5571 H6            1 RES     
    2893 H6         153.3026  -131.4618    76.8314 H6            1 RES     
    2894 H6         151.3242  -132.6830    75.9097 H6            1 RES     
    2895 H6         151.1391  -131.4040    74.6442 H6            1 RES     
    2896 H6         153.4139  -131.9817    73.7401 H6            1 RES     
    2897 H6         153.6134  -133.2083    75.0454 H6            1 RES     
    2898 H6         151.6928  -134.5206    74.1750 H6            1 RES     
    2899 H6         153.0057  -134.3060    72.9600 H6            1 RES     
    2900 H6         151.7055  -132.4557    71.8637 H6            1 RES     
    2901 H6         150.3539  -132.7112    73.0372 H6            1 RES     
    2902 H6         149.8943  -133.8594    70.9088 H6            1 RES     
    2903 H6         151.4234  -134.8071    71.0557 H6            1 RES     
    2904 H6         150.0823  -135.0542    72.2488 H6            1 RES     
    2905 C0         147.5574  -141.0744    79.3643 C0            1 RES     
    2906 C1         147.8785  -139.8461    78.5031 C1            1 RES     
    2907 C1         148.2963  -140.1682    77.2588 C1            1 RES     
    2908 S2         148.6170  -138.8187    76.3253 S2            1 RES     
    2909 C1         148.1868  -137.7495    77.5831 C1            1 RES     
    2910 C1         147.7955  -138.4691    78.7180 C1            1 RES     
    2911 C1         148.3180  -141.5820    77.1516 C1            1 RES     
    2912 C1         147.9378  -142.1461    78.3353 C1            1 RES     
    2913 C1         147.9771  -143.5437    78.3023 C1            1 RES     
    2914 C1         148.4156  -144.0188    77.0396 C1            1 RES     
    2915 S2         148.7023  -142.7028    75.9906 S2            1 RES     
    2916 H3         147.4705  -138.0167    79.6446 H3            1 RES     
    2917 H3         147.7148  -144.1598    79.1492 H3            1 RES     
    2918 N4         148.9686  -147.0299    74.8387 N4            1 RES     
    2919 C1         148.7131  -145.7557    75.2515 C1            1 RES     
    2920 C1         148.6678  -145.4253    76.6259 C1            1 RES     
    2921 C1         148.9168  -146.4626    77.5428 C1            1 RES     
    2922 N4         148.9587  -146.3078    78.8903 N4            1 RES     
    2923 S2         149.3342  -147.8288    79.4170 S2            1 RES     
    2924 N4         149.4573  -148.7081    78.0245 N4            1 RES     
    2925 C1         149.1977  -147.7775    77.0748 C1            1 RES     
    2926 C1         149.2115  -148.0433    75.7121 C1            1 RES     
    2927 H5         148.5323  -145.0036    74.4958 H5            1 RES     
    2928 C0         145.9943  -140.9870    79.5514 C0            1 RES     
    2929 C0         145.0094  -142.0714    80.1144 C0            1 RES     
    2930 C0         143.5508  -141.7539    79.6194 C0            1 RES     
    2931 C0         142.7315  -140.6025    80.2745 C0            1 RES     
    2932 C0         143.1995  -139.1441    80.0888 C0            1 RES     
    2933 C0         143.3742  -138.6811    78.6296 C0            1 RES     
    2934 C0         142.0690  -138.7143    77.8235 C0            1 RES     
    2935 C0         142.2929  -138.1919    76.4061 C0            1 RES     
    2936 C0         144.9549  -142.2504    81.6586 C0            1 RES     
    2937 C0         146.0003  -143.1914    82.2501 C0            1 RES     
    2938 C0         145.9223  -143.1889    83.7880 C0            1 RES     
    2939 C0         147.0003  -144.0819    84.4220 C0            1 RES     
    2940 C0         147.0502  -143.8745    85.9458 C0            1 RES     
    2941 C0         148.2336  -144.5835    86.6302 C0            1 RES     
    2942 C0         149.5962  -143.9906    86.2192 C0            1 RES     
    2943 C0         150.7448  -144.6267    86.9956 C0            1 RES     
    2944 H6         145.8036  -140.0425    80.0800 H6            1 RES     
    2945 H6         145.6421  -140.8667    78.5032 H6            1 RES     
    2946 H6         145.2515  -143.0424    79.6276 H6            1 RES     
    2947 H6         142.9538  -142.6719    79.8198 H6            1 RES     
    2948 H6         143.5386  -141.6350    78.5147 H6            1 RES     
    2949 H6         142.6365  -140.7928    81.3643 H6            1 RES     
    2950 H6         141.7027  -140.6714    79.8616 H6            1 RES     
    2951 H6         144.1359  -138.9751    80.6457 H6            1 RES     
    2952 H6         142.4532  -138.4802    80.5773 H6            1 RES     
    2953 H6         144.1383  -139.2944    78.1175 H6            1 RES     
    2954 H6         143.7460  -137.6332    78.6525 H6            1 RES     
    2955 H6         141.6844  -139.7529    77.7551 H6            1 RES     
    2956 H6         141.3073  -138.0781    78.3243 H6            1 RES     
    2957 H6         142.6614  -137.1441    76.4329 H6            1 RES     
    2958 H6         141.3359  -138.2173    75.8436 H6            1 RES     
    2959 H6         143.0351  -138.8252    75.8746 H6            1 RES     
    2960 H6         143.9896  -142.7292    81.9390 H6            1 RES     
    2961 H6         144.9818  -141.2453    82.1346 H6            1 RES     
    2962 H6         145.8528  -144.2196    81.8535 H6            1 RES     
    2963 H6         146.9808  -142.8481    81.9494 H6            1 RES     
    2964 H6         146.0874  -142.1412    84.1255 H6            1 RES     
    2965 H6         144.9176  -143.5165    84.1337 H6            1 RES     
    2966 H6         146.8192  -145.1508    84.1778 H6            1 RES     
    2967 H6         147.9706  -143.8085    83.9896 H6            1 RES     
    2968 H6         147.1286  -142.7893    86.1790 H6            1 RES     
    2969 H6         146.0977  -144.2489    86.3813 H6            1 RES     
    2970 H6         148.2031  -145.6730    86.4155 H6            1 RES     
    2971 H6         148.1162  -144.4394    87.7266 H6            1 RES     
    2972 H6         149.6015  -142.8965    86.4217 H6            1 RES     
    2973 H6         149.7876  -144.1572    85.1428 H6            1 RES     
    2974 H6         151.7036  -144.1691    86.6768 H6            1 RES     
    2975 H6         150.6158  -144.4572    88.0861 H6            1 RES     
    2976 H6         150.7864  -145.7196    86.7951 H6            1 RES     
    2977 C0         148.4159  -140.9300    80.6856 C0            1 RES     
    2978 C0         149.3738  -142.0243    81.2634 C0            1 RES     
    2979 C0         149.4960  -141.8743    82.8198 C0            1 RES     
    2980 C0         150.3272  -140.7325    83.4553 C0            1 RES     
    2981 C0         149.7866  -139.2926    83.3402 C0            1 RES     
    2982 C0         148.3567  -139.0677    83.8755 C0            1 RES     
    2983 C0         148.1832  -139.4217    85.3582 C0            1 RES     
    2984 C0         146.7584  -139.1211    85.8193 C0            1 RES     
    2985 C0         150.8167  -142.0951    80.6827 C0            1 RES     
    2986 C0         150.9094  -142.5630    79.2401 C0            1 RES     
    2987 C0         152.3529  -142.7883    78.7880 C0            1 RES     
    2988 C0         152.3620  -143.3061    77.3452 C0            1 RES     
    2989 C0         153.7907  -143.5540    76.8463 C0            1 RES     
    2990 C0         153.8320  -144.1366    75.4233 C0            1 RES     
    2991 C0         153.2459  -143.1894    74.3643 C0            1 RES     
    2992 C0         153.3738  -143.7840    72.9659 C0            1 RES     
    2993 H6         148.9983  -139.9926    80.6628 H6            1 RES     
    2994 H6         147.6410  -140.7411    81.4450 H6            1 RES     
    2995 H6         148.8988  -143.0117    81.1018 H6            1 RES     
    2996 H6         149.9820  -142.8098    83.1728 H6            1 RES     
    2997 H6         148.4936  -141.8402    83.2787 H6            1 RES     
    2998 H6         151.3664  -140.7635    83.0695 H6            1 RES     
    2999 H6         150.3998  -140.9617    84.5403 H6            1 RES     
    3000 H6         149.8369  -138.9524    82.2920 H6            1 RES     
    3001 H6         150.4769  -138.6313    83.9077 H6            1 RES     
    3002 H6         147.6235  -139.6483    83.2888 H6            1 RES     
    3003 H6         148.1144  -137.9912    83.7353 H6            1 RES     
    3004 H6         148.3772  -140.5028    85.5201 H6            1 RES     
    3005 H6         148.8959  -138.8290    85.9712 H6            1 RES     
    3006 H6         146.5309  -138.0408    85.6924 H6            1 RES     
    3007 H6         146.6472  -139.3846    86.8917 H6            1 RES     
    3008 H6         146.0276  -139.7162    85.2300 H6            1 RES     
    3009 H6         151.3778  -142.8460    81.2828 H6            1 RES     
    3010 H6         151.3275  -141.1135    80.7882 H6            1 RES     
    3011 H6         150.3849  -143.5359    79.1594 H6            1 RES     
    3012 H6         150.4612  -141.7954    78.5884 H6            1 RES     
    3013 H6         152.9193  -141.8342    78.8538 H6            1 RES     
    3014 H6         152.8368  -143.5424    79.4490 H6            1 RES     
    3015 H6         151.7900  -144.2596    77.2938 H6            1 RES     
    3016 H6         151.8615  -142.5512    76.7041 H6            1 RES     
    3017 H6         154.3700  -142.6056    76.8779 H6            1 RES     
    3018 H6         154.2817  -144.2849    77.5260 H6            1 RES     
    3019 H6         153.2852  -145.1053    75.4042 H6            1 RES     
    3020 H6         154.8971  -144.3345    75.1719 H6            1 RES     
    3021 H6         153.7867  -142.2187    74.3931 H6            1 RES     
    3022 H6         152.1684  -143.0080    74.5582 H6            1 RES     
    3023 H6         152.9434  -143.0798    72.2229 H6            1 RES     
    3024 H6         154.4422  -143.9564    72.7161 H6            1 RES     
    3025 H6         152.8228  -144.7468    72.9049 H6            1 RES     
    3026 C0         149.0269  -153.3897    74.9391 C0            1 RES     
    3027 C1         149.3812  -151.8978    74.8929 C1            1 RES     
    3028 C1         150.3510  -151.6129    73.9958 C1            1 RES     
    3029 S2         150.7067  -149.9802    73.9395 S2            1 RES     
    3030 C1         149.5427  -149.6054    75.1291 C1            1 RES     
    3031 C1         148.8900  -150.7691    75.5519 C1            1 RES     
    3032 C1         150.7515  -152.8244    73.3775 C1            1 RES     
    3033 C1         150.0508  -153.8713    73.9038 C1            1 RES     
    3034 C1         150.4313  -155.1017    73.3584 C1            1 RES     
    3035 C1         151.4634  -154.9443    72.3980 C1            1 RES     
    3036 S2         151.8465  -153.2900    72.2217 S2            1 RES     
    3037 H3         148.1052  -150.7922    76.2950 H3            1 RES     
    3038 H3         149.9891  -156.0400    73.6578 H3            1 RES     
    3039 N4         153.5967  -156.6212    69.7800 N4            1 RES     
    3040 C1         152.8953  -155.6776    70.4707 C1            1 RES     
    3041 C1         152.1937  -156.0056    71.6541 C1            1 RES     
    3042 C1         152.2686  -157.3393    72.0946 C1            1 RES     
    3043 N4         151.6963  -157.8097    73.2315 N4            1 RES     
    3044 S2         152.1622  -159.3955    73.2410 S2            1 RES     
    3045 N4         153.0700  -159.5470    71.8698 N4            1 RES     
    3046 C1         153.0253  -158.2937    71.3572 C1            1 RES     
    3047 C1         153.6789  -157.9142    70.1927 C1            1 RES     
    3048 H5         152.8795  -154.6694    70.0799 H5            1 RES     
    3049 C0         147.5611  -153.4322    74.3598 C0            1 RES     
    3050 C0         146.7194  -154.6761    73.9048 C0            1 RES     
    3051 C0         145.5798  -154.2025    72.9301 C0            1 RES     
    3052 C0         144.3122  -153.4908    73.4893 C0            1 RES     
    3053 C0         144.4532  -152.0958    74.1332 C0            1 RES     
    3054 C0         145.1153  -151.0192    73.2519 C0            1 RES     
    3055 C0         144.3252  -150.7140    71.9725 C0            1 RES     
    3056 C0         144.9984  -149.6021    71.1708 C0            1 RES     
    3057 C0         146.0588  -155.5352    75.0206 C0            1 RES     
    3058 C0         146.9446  -156.6179    75.6301 C0            1 RES     
    3059 C0         146.2229  -157.3128    76.7994 C0            1 RES     
    3060 C0         147.1078  -158.3711    77.4765 C0            1 RES     
    3061 C0         146.4552  -158.8741    78.7760 C0            1 RES     
    3062 C0         147.3670  -159.7887    79.6148 C0            1 RES     
    3063 C0         148.5910  -159.0431    80.1831 C0            1 RES     
    3064 C0         149.4160  -159.9353    81.1052 C0            1 RES     
    3065 H6         146.9456  -152.8334    75.0457 H6            1 RES     
    3066 H6         147.6698  -152.8589    73.4128 H6            1 RES     
    3067 H6         147.3684  -155.3162    73.2664 H6            1 RES     
    3068 H6         145.1913  -155.1253    72.4432 H6            1 RES     
    3069 H6         146.0099  -153.5972    72.1034 H6            1 RES     
    3070 H6         143.8118  -154.1554    74.2247 H6            1 RES     
    3071 H6         143.6050  -153.3890    72.6389 H6            1 RES     
    3072 H6         144.9947  -152.1755    75.0902 H6            1 RES     
    3073 H6         143.4361  -151.7417    74.4095 H6            1 RES     
    3074 H6         146.1461  -151.3169    72.9853 H6            1 RES     
    3075 H6         145.1814  -150.0867    73.8544 H6            1 RES     
    3076 H6         144.2651  -151.6179    71.3316 H6            1 RES     
    3077 H6         143.2959  -150.3906    72.2402 H6            1 RES     
    3078 H6         145.0599  -148.6716    71.7747 H6            1 RES     
    3079 H6         144.4071  -149.3923    70.2547 H6            1 RES     
    3080 H6         146.0230  -149.9095    70.8706 H6            1 RES     
    3081 H6         145.2102  -156.1110    74.5869 H6            1 RES     
    3082 H6         145.6412  -154.8536    75.7944 H6            1 RES     
    3083 H6         147.2284  -157.3587    74.8510 H6            1 RES     
    3084 H6         147.8472  -156.1534    76.0030 H6            1 RES     
    3085 H6         145.9748  -156.5275    77.5482 H6            1 RES     
    3086 H6         145.2763  -157.7842    76.4560 H6            1 RES     
    3087 H6         147.3073  -159.2179    76.7850 H6            1 RES     
    3088 H6         148.0741  -157.9097    77.7143 H6            1 RES     
    3089 H6         146.1666  -158.0102    79.4152 H6            1 RES     
    3090 H6         145.5271  -159.4267    78.5104 H6            1 RES     
    3091 H6         147.6904  -160.6639    79.0116 H6            1 RES     
    3092 H6         146.7647  -160.1588    80.4732 H6            1 RES     
    3093 H6         148.2496  -158.1591    80.7662 H6            1 RES     
    3094 H6         149.2548  -158.7006    79.3676 H6            1 RES     
    3095 H6         150.2802  -159.3612    81.4975 H6            1 RES     
    3096 H6         148.8001  -160.2802    81.9632 H6            1 RES     
    3097 H6         149.7972  -160.8181    80.5470 H6            1 RES     
    3098 C0         149.1817  -153.8389    76.4484 C0            1 RES     
    3099 C0         150.0333  -155.0540    76.9454 C0            1 RES     
    3100 C0         149.4437  -155.6213    78.2835 C0            1 RES     
    3101 C0         149.6286  -154.8716    79.6260 C0            1 RES     
    3102 C0         148.8630  -153.5481    79.8278 C0            1 RES     
    3103 C0         147.3330  -153.6223    79.6394 C0            1 RES     
    3104 C0         146.6361  -154.6124    80.5817 C0            1 RES     
    3105 C0         145.1241  -154.5853    80.3668 C0            1 RES     
    3106 C0         151.5573  -154.8216    77.1640 C0            1 RES     
    3107 C0         152.3620  -154.5844    75.8971 C0            1 RES     
    3108 C0         153.8685  -154.5479    76.1572 C0            1 RES     
    3109 C0         154.6121  -154.3569    74.8304 C0            1 RES     
    3110 C0         156.1310  -154.3198    75.0379 C0            1 RES     
    3111 C0         156.9097  -154.1948    73.7173 C0            1 RES     
    3112 C0         156.6221  -152.8847    72.9668 C0            1 RES     
    3113 C0         157.4689  -152.7796    71.7029 C0            1 RES     
    3114 H6         149.4773  -152.9795    77.0748 H6            1 RES     
    3115 H6         148.1374  -154.0316    76.7402 H6            1 RES     
    3116 H6         149.9216  -155.8722    76.2073 H6            1 RES     
    3117 H6         149.9407  -156.6040    78.4361 H6            1 RES     
    3118 H6         148.3649  -155.8213    78.1694 H6            1 RES     
    3119 H6         150.7077  -154.7012    79.8165 H6            1 RES     
    3120 H6         149.2859  -155.5650    80.4239 H6            1 RES     
    3121 H6         149.2711  -152.7697    79.1611 H6            1 RES     
    3122 H6         149.0679  -153.1994    80.8633 H6            1 RES     
    3123 H6         147.0796  -153.8914    78.5991 H6            1 RES     
    3124 H6         146.9250  -152.6046    79.8265 H6            1 RES     
    3125 H6         146.9938  -155.6451    80.3864 H6            1 RES     
    3126 H6         146.8576  -154.3448    81.6373 H6            1 RES     
    3127 H6         144.7225  -153.5700    80.5730 H6            1 RES     
    3128 H6         144.6343  -155.3077    81.0523 H6            1 RES     
    3129 H6         144.8773  -154.8662    79.3199 H6            1 RES     
    3130 H6         151.9712  -155.7497    77.6181 H6            1 RES     
    3131 H6         151.7255  -153.9825    77.8733 H6            1 RES     
    3132 H6         152.1692  -155.4273    75.2040 H6            1 RES     
    3133 H6         152.0646  -153.6155    75.4639 H6            1 RES     
    3134 H6         154.1087  -153.7141    76.8519 H6            1 RES     
    3135 H6         154.1899  -155.5081    76.6203 H6            1 RES     
    3136 H6         154.3608  -155.1969    74.1446 H6            1 RES     
    3137 H6         154.2676  -153.4054    74.3752 H6            1 RES     
    3138 H6         156.3983  -153.4752    75.7098 H6            1 RES     
    3139 H6         156.4451  -155.2676    75.5281 H6            1 RES     
    3140 H6         156.6704  -155.0623    73.0632 H6            1 RES     
    3141 H6         157.9940  -154.2333    73.9615 H6            1 RES     
    3142 H6         156.8517  -152.0199    73.6263 H6            1 RES     
    3143 H6         155.5554  -152.8353    72.6651 H6            1 RES     
    3144 H6         157.2410  -151.8256    71.1823 H6            1 RES     
    3145 H6         158.5494  -152.7960    71.9598 H6            1 RES     
    3146 H6         157.2423  -153.6231    71.0162 H6            1 RES     
    3147 C0         155.1167  -162.3359    67.4362 C0            1 RES     
    3148 C1         155.0912  -160.9767    68.1471 C1            1 RES     
    3149 C1         156.2515  -160.2948    68.0246 C1            1 RES     
    3150 S2         156.1982  -158.8055    68.7826 S2            1 RES     
    3151 C1         154.5871  -159.0358    69.2943 C1            1 RES     
    3152 C1         154.1140  -160.2795    68.8602 C1            1 RES     
    3153 C1         157.1520  -161.0863    67.2673 C1            1 RES     
    3154 C1         156.5652  -162.2737    66.9362 C1            1 RES     
    3155 C1         157.4216  -163.1154    66.2192 C1            1 RES     
    3156 C1         158.6936  -162.5173    66.0282 C1            1 RES     
    3157 S2         158.7100  -160.9537    66.7135 S2            1 RES     
    3158 H3         153.1184  -160.6540    69.0529 H3            1 RES     
    3159 H3         157.1312  -164.0976    65.8776 H3            1 RES     
    3160 N4         162.0674  -162.7799    64.3652 N4            1 RES     
    3161 C1         160.9372  -162.2669    64.9297 C1            1 RES     
    3162 C1         159.8998  -163.1104    65.3906 C1            1 RES     
    3163 C1         160.0951  -164.4971    65.2585 C1            1 RES     
    3164 N4         159.2243  -165.4437    65.6909 N4            1 RES     
    3165 S2         160.0042  -166.8513    65.3137 S2            1 RES     
    3166 N4         161.4155  -166.3456    64.6209 N4            1 RES     
    3167 C1         161.2961  -164.9974    64.6801 C1            1 RES     
    3168 C1         162.2714  -164.1174    64.2306 C1            1 RES     
    3169 H5         160.8496  -161.1916    65.0040 H5            1 RES     
    3170 C0         154.0921  -162.1452    66.2531 C0            1 RES     
    3171 C0         153.8456  -163.0678    65.0077 C0            1 RES     
    3172 C0         153.1512  -162.2307    63.8718 C0            1 RES     
    3173 C0         151.6372  -161.8780    63.9687 C0            1 RES     
    3174 C0         151.1555  -160.9221    65.0798 C0            1 RES     
    3175 C0         151.8522  -159.5485    65.1252 C0            1 RES     
    3176 C0         151.6325  -158.7159    63.8552 C0            1 RES     
    3177 C0         152.2967  -157.3467    63.9820 C0            1 RES     
    3178 C0         152.9989  -164.3534    65.2308 C0            1 RES     
    3179 C0         153.7714  -165.5742    65.7221 C0            1 RES     
    3180 C0         152.8096  -166.7390    66.0207 C0            1 RES     
    3181 C0         153.5467  -167.9686    66.5742 C0            1 RES     
    3182 C0         152.5445  -169.0196    67.0824 C0            1 RES     
    3183 C0         153.2023  -170.1936    67.8310 C0            1 RES     
    3184 C0         153.8532  -169.7579    69.1591 C0            1 RES     
    3185 C0         154.3945  -170.9514    69.9396 C0            1 RES     
    3186 H6         153.1208  -161.9355    66.7227 H6            1 RES     
    3187 H6         154.4529  -161.2034    65.7840 H6            1 RES     
    3188 H6         154.8357  -163.3350    64.5757 H6            1 RES     
    3189 H6         153.2378  -162.8423    62.9455 H6            1 RES     
    3190 H6         153.7341  -161.3074    63.6656 H6            1 RES     
    3191 H6         151.0458  -162.8146    64.0461 H6            1 RES     
    3192 H6         151.3562  -161.4189    62.9971 H6            1 RES     
    3193 H6         151.2412  -161.4136    66.0629 H6            1 RES     
    3194 H6         150.0654  -160.7546    64.9387 H6            1 RES     
    3195 H6         152.9367  -159.6700    65.3023 H6            1 RES     
    3196 H6         151.4324  -158.9881    65.9893 H6            1 RES     
    3197 H6         152.0669  -159.2335    62.9750 H6            1 RES     
    3198 H6         150.5427  -158.5722    63.6896 H6            1 RES     
    3199 H6         151.8729  -156.7887    64.8443 H6            1 RES     
    3200 H6         152.1193  -156.7588    63.0570 H6            1 RES     
    3201 H6         153.3924  -157.4616    64.1261 H6            1 RES     
    3202 H6         152.5785  -164.6900    64.2563 H6            1 RES     
    3203 H6         152.1436  -164.1052    65.8974 H6            1 RES     
    3204 H6         154.5262  -165.8759    64.9636 H6            1 RES     
    3205 H6         154.2912  -165.3081    66.6324 H6            1 RES     
    3206 H6         152.0883  -166.3831    66.7902 H6            1 RES     
    3207 H6         152.2404  -167.0257    65.1097 H6            1 RES     
    3208 H6         154.2159  -168.4064    65.8024 H6            1 RES     
    3209 H6         154.1804  -167.6427    67.4082 H6            1 RES     
    3210 H6         151.8157  -168.5450    67.7765 H6            1 RES     
    3211 H6         151.9777  -169.4134    66.2100 H6            1 RES     
    3212 H6         153.9490  -170.6937    67.1779 H6            1 RES     
    3213 H6         152.3997  -170.9254    68.0691 H6            1 RES     
    3214 H6         153.0972  -169.2411    69.7912 H6            1 RES     
    3215 H6         154.6979  -169.0685    68.9740 H6            1 RES     
    3216 H6         154.8465  -170.5972    70.8885 H6            1 RES     
    3217 H6         153.5741  -171.6610    70.1803 H6            1 RES     
    3218 H6         155.1744  -171.4775    69.3467 H6            1 RES     
    3219 C0         154.7179  -163.4153    68.5222 C0            1 RES     
    3220 C0         155.5397  -164.7041    68.8577 C0            1 RES     
    3221 C0         154.5913  -165.8284    69.4021 C0            1 RES     
    3222 C0         154.0047  -165.7628    70.8339 C0            1 RES     
    3223 C0         152.9356  -164.6914    71.1302 C0            1 RES     
    3224 C0         151.6966  -164.7073    70.2102 C0            1 RES     
    3225 C0         150.9229  -166.0321    70.2291 C0            1 RES     
    3226 C0         149.6868  -165.9454    69.3360 C0            1 RES     
    3227 C0         156.7231  -164.5609    69.8594 C0            1 RES     
    3228 C0         157.9075  -163.7582    69.3482 C0            1 RES     
    3229 C0         159.1046  -163.8088    70.2986 C0            1 RES     
    3230 C0         160.2722  -163.0216    69.6928 C0            1 RES     
    3231 C0         161.5022  -163.0476    70.6081 C0            1 RES     
    3232 C0         162.7135  -162.3213    69.9989 C0            1 RES     
    3233 C0         162.4695  -160.8203    69.7752 C0            1 RES     
    3234 C0         163.7209  -160.1357    69.2359 C0            1 RES     
    3235 H6         154.5059  -162.9255    69.4884 H6            1 RES     
    3236 H6         153.7274  -163.7429    68.1693 H6            1 RES     
    3237 H6         155.9500  -165.1024    67.9092 H6            1 RES     
    3238 H6         155.1943  -166.7622    69.3847 H6            1 RES     
    3239 H6         153.7449  -165.9798    68.7112 H6            1 RES     
    3240 H6         154.8261  -165.6723    71.5735 H6            1 RES     
    3241 H6         153.5313  -166.7497    71.0261 H6            1 RES     
    3242 H6         153.3901  -163.6866    71.1056 H6            1 RES     
    3243 H6         152.5921  -164.8441    72.1764 H6            1 RES     
    3244 H6         151.9807  -164.4827    69.1673 H6            1 RES     
    3245 H6         151.0187  -163.8938    70.5509 H6            1 RES     
    3246 H6         151.5638  -166.8564    69.8517 H6            1 RES     
    3247 H6         150.6047  -166.2659    71.2678 H6            1 RES     
    3248 H6         149.0071  -165.1424    69.6939 H6            1 RES     
    3249 H6         149.1395  -166.9107    69.3573 H6            1 RES     
    3250 H6         149.9824  -165.7280    68.2867 H6            1 RES     
    3251 H6         157.1125  -165.5843    70.0591 H6            1 RES     
    3252 H6         156.3694  -164.1296    70.8209 H6            1 RES     
    3253 H6         158.2338  -164.2007    68.3860 H6            1 RES     
    3254 H6         157.6014  -162.7051    69.2373 H6            1 RES     
    3255 H6         158.8213  -163.3740    71.2815 H6            1 RES     
    3256 H6         159.4170  -164.8670    70.4479 H6            1 RES     
    3257 H6         160.5434  -163.4662    68.7090 H6            1 RES     
    3258 H6         159.9383  -161.9752    69.5350 H6            1 RES     
    3259 H6         161.2498  -162.5923    71.5905 H6            1 RES     
    3260 H6         161.7938  -164.1072    70.7800 H6            1 RES     
    3261 H6         162.9883  -162.8044    69.0352 H6            1 RES     
    3262 H6         163.5662  -162.4412    70.7026 H6            1 RES     
    3263 H6         162.1845  -160.3422    70.7374 H6            1 RES     
    3264 H6         161.6539  -160.6642    69.0392 H6            1 RES     
    3265 H6         163.5161  -159.0549    69.0844 H6            1 RES     
    3266 H6         164.5597  -160.2418    69.9562 H6            1 RES     
    3267 H6         164.0149  -160.5825    68.2621 H6            1 RES     
    3268 C0         165.7487  -166.7806    61.0632 C0            1 RES     
    3269 C1         165.1015  -165.8908    62.1323 C1            1 RES     
    3270 C1         166.0052  -165.2009    62.8629 C1            1 RES     
    3271 S2         165.2828  -164.2170    64.0054 S2            1 RES     
    3272 C1         163.7129  -164.6905    63.5351 C1            1 RES     
    3273 C1         163.7794  -165.6140    62.4854 C1            1 RES     
    3274 C1         167.3015  -165.5437    62.4015 C1            1 RES     
    3275 C1         167.2117  -166.4661    61.3990 C1            1 RES     
    3276 C1         168.4644  -166.8728    60.9285 C1            1 RES     
    3277 C1         169.5146  -166.2240    61.6274 C1            1 RES     
    3278 S2         168.8663  -165.1395    62.7754 S2            1 RES     
    3279 H3         162.9168  -166.0577    62.0082 H3            1 RES     
    3280 H3         168.5891  -167.6006    60.1408 H3            1 RES     
    3281 N4         173.2306  -165.6292    61.8615 N4            1 RES     
    3282 C1         171.8815  -165.4529    61.9526 C1            1 RES     
    3283 C1         170.9800  -166.4371    61.4848 C1            1 RES     
    3284 C1         171.5364  -167.6093    60.9418 C1            1 RES     
    3285 N4         170.8170  -168.6687    60.4929 N4            1 RES     
    3286 S2         171.9931  -169.7354    60.0337 S2            1 RES     
    3287 N4         173.4000  -168.9390    60.3711 N4            1 RES     
    3288 C1         172.9501  -167.7663    60.8790 C1            1 RES     
    3289 C1         173.7838  -166.7563    61.3396 C1            1 RES     
    3290 H5         171.5179  -164.5297    62.3827 H5            1 RES     
    3291 C0         165.3106  -166.0991    59.7107 C0            1 RES     
    3292 C0         165.8432  -166.3642    58.2585 C0            1 RES     
    3293 C0         165.5199  -165.1200    57.3526 C0            1 RES     
    3294 C0         164.0722  -164.8838    56.8286 C0            1 RES     
    3295 C0         162.9524  -164.5450    57.8345 C0            1 RES     
    3296 C0         163.2153  -163.3249    58.7381 C0            1 RES     
    3297 C0         163.3647  -162.0133    57.9560 C0            1 RES     
    3298 C0         163.5657  -160.8346    58.9059 C0            1 RES     
    3299 C0         165.3143  -167.6306    57.5265 C0            1 RES     
    3300 C0         166.0708  -168.9236    57.8169 C0            1 RES     
    3301 C0         165.3806  -170.1192    57.1348 C0            1 RES     
    3302 C0         166.0820  -171.4490    57.4533 C0            1 RES     
    3303 C0         165.2403  -172.6388    56.9598 C0            1 RES     
    3304 C0         165.7763  -174.0091    57.4144 C0            1 RES     
    3305 C0         165.6775  -174.2062    58.9403 C0            1 RES     
    3306 C0         166.1028  -175.6110    59.3557 C0            1 RES     
    3307 H6         164.2128  -166.1466    59.6878 H6            1 RES     
    3308 H6         165.6011  -165.0389    59.8810 H6            1 RES     
    3309 H6         166.9551  -166.3844    58.2979 H6            1 RES     
    3310 H6         166.1342  -165.2444    56.4324 H6            1 RES     
    3311 H6         165.8972  -164.1902    57.8299 H6            1 RES     
    3312 H6         163.7452  -165.7674    56.2410 H6            1 RES     
    3313 H6         164.1301  -164.0415    56.1069 H6            1 RES     
    3314 H6         162.7267  -165.4258    58.4579 H6            1 RES     
    3315 H6         162.0201  -164.3567    57.2585 H6            1 RES     
    3316 H6         164.1165  -163.4885    59.3573 H6            1 RES     
    3317 H6         162.3485  -163.2255    59.4278 H6            1 RES     
    3318 H6         164.2409  -162.0668    57.2772 H6            1 RES     
    3319 H6         162.4487  -161.8351    57.3518 H6            1 RES     
    3320 H6         162.6967  -160.7366    59.5913 H6            1 RES     
    3321 H6         163.6637  -159.8962    58.3206 H6            1 RES     
    3322 H6         164.4891  -160.9772    59.5072 H6            1 RES     
    3323 H6         165.4408  -167.4997    56.4280 H6            1 RES     
    3324 H6         164.2251  -167.7302    57.7294 H6            1 RES     
    3325 H6         167.1240  -168.8324    57.4725 H6            1 RES     
    3326 H6         166.0753  -169.0861    58.8861 H6            1 RES     
    3327 H6         164.3392  -170.1663    57.5250 H6            1 RES     
    3328 H6         165.3383  -169.9758    56.0331 H6            1 RES     
    3329 H6         167.0982  -171.4750    57.0045 H6            1 RES     
    3330 H6         166.2039  -171.5210    58.5411 H6            1 RES     
    3331 H6         164.1961  -172.5461    57.3330 H6            1 RES     
    3332 H6         165.2092  -172.6083    55.8484 H6            1 RES     
    3333 H6         166.8248  -174.1426    57.0722 H6            1 RES     
    3334 H6         165.1479  -174.7875    56.9290 H6            1 RES     
    3335 H6         164.6259  -174.0485    59.2679 H6            1 RES     
    3336 H6         166.3302  -173.4886    59.4714 H6            1 RES     
    3337 H6         166.0106  -175.7140    60.4562 H6            1 RES     
    3338 H6         165.4525  -176.3712    58.8723 H6            1 RES     
    3339 H6         167.1608  -175.7942    59.0670 H6            1 RES     
    3340 C0         165.1958  -168.2433    61.3052 C0            1 RES     
    3341 C0         166.0777  -169.5254    61.4713 C0            1 RES     
    3342 C0         165.2852  -170.7957    61.0040 C0            1 RES     
    3343 C0         164.1493  -171.3980    61.8673 C0            1 RES     
    3344 C0         162.8347  -170.6012    61.9930 C0            1 RES     
    3345 C0         162.1467  -170.2276    60.6630 C0            1 RES     
    3346 C0         161.7777  -171.4350    59.7913 C0            1 RES     
    3347 C0         161.0563  -170.9820    58.5234 C0            1 RES     
    3348 C0         166.6522  -169.8236    62.8873 C0            1 RES     
    3349 C0         167.7132  -168.8497    63.3713 C0            1 RES     
    3350 C0         168.3676  -169.2973    64.6790 C0            1 RES     
    3351 C0         169.4578  -168.2948    65.0747 C0            1 RES     
    3352 C0         170.1499  -168.7038    66.3805 C0            1 RES     
    3353 C0         171.2942  -167.7530    66.7712 C0            1 RES     
    3354 C0         170.8192  -166.3192    67.0557 C0            1 RES     
    3355 C0         171.9788  -165.4364    67.5046 C0            1 RES     
    3356 H6         164.4840  -168.2484    62.1489 H6            1 RES     
    3357 H6         164.5582  -168.3985    60.4208 H6            1 RES     
    3358 H6         166.9335  -169.4422    60.7731 H6            1 RES     
    3359 H6         166.0414  -171.6066    60.9236 H6            1 RES     
    3360 H6         164.8750  -170.6375    59.9924 H6            1 RES     
    3361 H6         164.5313  -171.6331    62.8815 H6            1 RES     
    3362 H6         163.8887  -172.3757    61.4077 H6            1 RES     
    3363 H6         163.0035  -169.6837    62.5818 H6            1 RES     
    3364 H6         162.1268  -171.2182    62.5878 H6            1 RES     
    3365 H6         162.7843  -169.5492    60.0697 H6            1 RES     
    3366 H6         161.2165  -169.6718    60.9142 H6            1 RES     
    3367 H6         162.6937  -171.9847    59.4891 H6            1 RES     
    3368 H6         161.1142  -172.1204    60.3613 H6            1 RES     
    3369 H6         160.1196  -170.4435    58.7831 H6            1 RES     
    3370 H6         160.7985  -171.8648    57.9021 H6            1 RES     
    3371 H6         161.7083  -170.3070    57.9278 H6            1 RES     
    3372 H6         167.1509  -170.8175    62.8388 H6            1 RES     
    3373 H6         165.8325  -169.8820    63.6358 H6            1 RES     
    3374 H6         168.5119  -168.8017    62.6046 H6            1 RES     
    3375 H6         167.2426  -167.8676    63.5413 H6            1 RES     
    3376 H6         167.5995  -169.3605    65.4799 H6            1 RES     
    3377 H6         168.8287  -170.3012    64.5402 H6            1 RES     
    3378 H6         170.2181  -168.2402    64.2636 H6            1 RES     
    3379 H6         168.9843  -167.2981    65.1919 H6            1 RES     
    3380 H6         169.4041  -168.7478    67.2038 H6            1 RES     
    3381 H6         170.5836  -169.7196    66.2487 H6            1 RES     
    3382 H6         172.0583  -167.7418    65.9627 H6            1 RES     
    3383 H6         171.7689  -168.1587    67.6914 H6            1 RES     
    3384 H6         170.0481  -166.3345    67.8561 H6            1 RES     
    3385 H6         170.3820  -165.8658    66.1420 H6            1 RES     
    3386 H6         171.6072  -164.4088    67.7028 H6            1 RES     
    3387 H6         172.4309  -165.8375    68.4364 H6            1 RES     
    3388 H6         172.7552  -165.3876    66.7115 H6            1 RES     
    3389 C0         178.7995  -167.6192    59.5189 C0            1 RES     
    3390 C1         177.5687  -167.3240    60.3858 C1            1 RES     
    3391 C1         177.8841  -167.0186    61.6640 C1            1 RES     
    3392 S2         176.5340  -166.6745    62.5882 S2            1 RES     
    3393 C1         175.4746  -166.9198    61.2737 C1            1 RES     
    3394 C1         176.1979  -167.2670    60.1269 C1            1 RES     
    3395 C1         179.2939  -167.0860    61.8000 C1            1 RES     
    3396 C1         179.8603  -167.4572    60.6145 C1            1 RES     
    3397 C1         181.2512  -167.5784    60.6975 C1            1 RES     
    3398 C1         181.7178  -167.2920    62.0062 C1            1 RES     
    3399 S2         180.4062  -166.8590    63.0096 S2            1 RES     
    3400 H3         175.7523  -167.4666    59.1623 H3            1 RES     
    3401 H3         181.8675  -167.8684    59.8599 H3            1 RES     
    3402 N4         184.7234  -166.7827    64.2251 N4            1 RES     
    3403 C1         183.4642  -166.6975    63.7089 C1            1 RES     
    3404 C1         183.1091  -167.3841    62.5245 C1            1 RES     
    3405 C1         184.1044  -168.1710    61.9172 C1            1 RES     
    3406 N4         183.9182  -168.9290    60.8072 N4            1 RES     
    3407 S2         185.3942  -169.6456    60.6076 S2            1 RES     
    3408 N4         186.2908  -169.0559    61.8629 N4            1 RES     
    3409 C1         185.4034  -168.2504    62.4946 C1            1 RES     
    3410 C1         185.6962  -167.5390    63.6503 C1            1 RES     
    3411 H5         182.7445  -166.0771    64.2253 H5            1 RES     
    3412 C0         178.8289  -166.4099    58.5077 C0            1 RES     
    3413 C0         179.9738  -165.9774    57.5253 C0            1 RES     
    3414 C0         179.7802  -164.4657    57.1370 C0            1 RES     
    3415 C0         178.6818  -164.0513    56.1134 C0            1 RES     
    3416 C0         177.1959  -164.2296    56.4887 C0            1 RES     
    3417 C0         176.7520  -163.5443    57.7955 C0            1 RES     
    3418 C0         176.9027  -162.0178    57.7600 C0            1 RES     
    3419 C0         176.3949  -161.3918    59.0571 C0            1 RES     
    3420 C0         180.1236  -166.7877    56.2060 C0            1 RES     
    3421 C0         180.9685  -168.0546    56.3032 C0            1 RES     
    3422 C0         180.9393  -168.8279    54.9720 C0            1 RES     
    3423 C0         181.7328  -170.1416    55.0502 C0            1 RES     
    3424 C0         181.4898  -170.9985    53.7956 C0            1 RES     
    3425 C0         182.0908  -172.4136    53.8845 C0            1 RES     
    3426 C0         181.4035  -173.2817    54.9575 C0            1 RES     
    3427 C0         181.9326  -174.7123    54.9486 C0            1 RES     
    3428 H6         177.8909  -166.4669    57.9378 H6            1 RES     
    3429 H6         178.7584  -165.5350    59.1910 H6            1 RES     
    3430 H6         180.9333  -165.9879    58.0888 H6            1 RES     
    3431 H6         180.7371  -164.1465    56.6658 H6            1 RES     
    3432 H6         179.6862  -163.8440    58.0531 H6            1 RES     
    3433 H6         178.8556  -164.5809    55.1531 H6            1 RES     
    3434 H6         178.8385  -162.9727    55.9001 H6            1 RES     
    3435 H6         176.9434  -165.3021    56.5286 H6            1 RES     
    3436 H6         176.5812  -163.8226    55.6564 H6            1 RES     
    3437 H6         177.3153  -163.9496    58.6561 H6            1 RES     
    3438 H6         175.6783  -163.7874    57.9535 H6            1 RES     
    3439 H6         177.9692  -161.7386    57.6329 H6            1 RES     
    3440 H6         176.3167  -161.6066    56.9097 H6            1 RES     
    3441 H6         175.3215  -161.6343    59.2101 H6            1 RES     
    3442 H6         176.5060  -160.2882    59.0073 H6            1 RES     
    3443 H6         176.9803  -161.7698    59.9225 H6            1 RES     
    3444 H6         180.6693  -166.1713    55.4563 H6            1 RES     
    3445 H6         179.1095  -166.9931    55.7974 H6            1 RES     
    3446 H6         182.0132  -167.7935    56.5800 H6            1 RES     
    3447 H6         180.5571  -168.6828    57.0814 H6            1 RES     
    3448 H6         179.8750  -169.0701    54.7537 H6            1 RES     
    3449 H6         181.3359  -168.2029    54.1424 H6            1 RES     
    3450 H6         182.8174  -169.9387    55.1821 H6            1 RES     
    3451 H6         181.3947  -170.6949    55.9350 H6            1 RES     
    3452 H6         180.3971  -171.1084    53.6165 H6            1 RES     
    3453 H6         181.9273  -170.4695    52.9203 H6            1 RES     
    3454 H6         183.1838  -172.3540    54.0743 H6            1 RES     
    3455 H6         181.9330  -172.9026    52.8984 H6            1 RES     
    3456 H6         180.3082  -173.3132    54.7641 H6            1 RES     
    3457 H6         181.5777  -172.8671    55.9678 H6            1 RES     
    3458 H6         181.4094  -175.3039    55.7274 H6            1 RES     
    3459 H6         181.7504  -175.1865    53.9604 H6            1 RES     
    3460 H6         183.0231  -174.7209    55.1658 H6            1 RES     
    3461 C0         178.5613  -169.0454    58.8763 C0            1 RES     
    3462 C0         179.5660  -170.2434    58.9411 C0            1 RES     
    3463 C0         179.3740  -171.1829    57.6999 C0            1 RES     
    3464 C0         178.1583  -172.1363    57.5928 C0            1 RES     
    3465 C0         176.7671  -171.5126    57.3596 C0            1 RES     
    3466 C0         176.6418  -170.5938    56.1259 C0            1 RES     
    3467 C0         176.9765  -171.2846    54.7975 C0            1 RES     
    3468 C0         176.7768  -170.3239    53.6269 C0            1 RES     
    3469 C0         179.5377  -171.1366    60.2161 C0            1 RES     
    3470 C0         180.0277  -170.4629    61.4868 C0            1 RES     
    3471 C0         180.1506  -171.4384    62.6581 C0            1 RES     
    3472 C0         180.6967  -170.6985    63.8846 C0            1 RES     
    3473 C0         180.8443  -171.6379    65.0876 C0            1 RES     
    3474 C0         181.4521  -170.9407    66.3167 C0            1 RES     
    3475 C0         180.5755  -169.8017    66.8615 C0            1 RES     
    3476 C0         181.1881  -169.1911    68.1174 C0            1 RES     
    3477 H6         177.5825  -169.4477    59.1902 H6            1 RES     
    3478 H6         178.4167  -168.7983    57.8129 H6            1 RES     
    3479 H6         180.5903  -169.8340    58.8414 H6            1 RES     
    3480 H6         180.2615  -171.8523    57.6918 H6            1 RES     
    3481 H6         179.4075  -170.5938    56.7679 H6            1 RES     
    3482 H6         178.1173  -172.7957    58.4834 H6            1 RES     
    3483 H6         178.3581  -172.8061    56.7289 H6            1 RES     
    3484 H6         176.4464  -170.9570    58.2570 H6            1 RES     
    3485 H6         176.0427  -172.3479    57.2443 H6            1 RES     
    3486 H6         177.2895  -169.7061    56.2318 H6            1 RES     
    3487 H6         175.5904  -170.2331    56.0851 H6            1 RES     
    3488 H6         178.0357  -171.6172    54.7938 H6            1 RES     
    3489 H6         176.3178  -172.1686    54.6580 H6            1 RES     
    3490 H6         175.7203  -169.9825    53.5830 H6            1 RES     
    3491 H6         177.0253  -170.8359    52.6741 H6            1 RES     
    3492 H6         177.4389  -169.4378    53.7368 H6            1 RES     
    3493 H6         180.2302  -171.9895    60.0374 H6            1 RES     
    3494 H6         178.5176  -171.5458    60.3823 H6            1 RES     
    3495 H6         181.0396  -170.0552    61.2920 H6            1 RES     
    3496 H6         179.3109  -169.6748    61.7698 H6            1 RES     
    3497 H6         179.1545  -171.8744    62.8886 H6            1 RES     
    3498 H6         180.8509  -172.2602    62.3864 H6            1 RES     
    3499 H6         181.6923  -170.2657    63.6389 H6            1 RES     
    3500 H6         179.9964  -169.8737    64.1306 H6            1 RES     
    3501 H6         179.8536  -172.0665    65.3540 H6            1 RES     
    3502 H6         181.5205  -172.4741    64.8036 H6            1 RES     
    3503 H6         182.4602  -170.5476    66.0581 H6            1 RES     
    3504 H6         181.5726  -171.7077    67.1129 H6            1 RES     
    3505 H6         179.5657  -170.1950    67.1086 H6            1 RES     
    3506 H6         180.4737  -168.9943    66.1071 H6            1 RES     
    3507 H6         180.5352  -168.3731    68.4883 H6            1 RES     
    3508 H6         181.2829  -169.9599    68.9135 H6            1 RES     
    3509 H6         182.1916  -168.7713    67.8915 H6            1 RES     
    3510 C0         191.0562  -167.3706    64.3273 C0            1 RES     
    3511 C1         189.5428  -167.5275    64.5229 C1            1 RES     
    3512 C1         189.2030  -167.8260    65.7964 C1            1 RES     
    3513 S2         187.5494  -167.9679    65.9979 S2            1 RES     
    3514 C1         187.2402  -167.6165    64.3574 C1            1 RES     
    3515 C1         188.4415  -167.3909    63.6755 C1            1 RES     
    3516 C1         190.3930  -167.9154    66.5624 C1            1 RES     
    3517 C1         191.4794  -167.6973    65.7647 C1            1 RES     
    3518 C1         192.6881  -167.8112    66.4591 C1            1 RES     
    3519 C1         192.4720  -168.1370    67.8228 C1            1 RES     
    3520 S2         190.7972  -168.2346    68.1392 S2            1 RES     
    3521 H3         188.5092  -167.1428    62.6254 H3            1 RES     
    3522 H3         193.6511  -167.6769    65.9899 H3            1 RES     
    3523 N4         194.0348  -168.6176    71.2204 N4            1 RES     
    3524 C1         193.1336  -168.3370    70.2363 C1            1 RES     
    3525 C1         193.4894  -168.4217    68.8701 C1            1 RES     
    3526 C1         194.8038  -168.8260    68.5742 C1            1 RES     
    3527 N4         195.2926  -169.0042    67.3209 N4            1 RES     
    3528 S2         196.8372  -169.5191    67.6056 S2            1 RES     
    3529 N4         196.9474  -169.5406    69.2532 N4            1 RES     
    3530 C1         195.7124  -169.1282    69.6278 C1            1 RES     
    3531 C1         195.3085  -169.0098    70.9508 C1            1 RES     
    3532 H5         192.1382  -168.0338    70.5306 H5            1 RES     
    3533 C0         191.2238  -165.8344    64.0145 C0            1 RES     
    3534 C0         192.5384  -164.9784    63.9670 C0            1 RES     
    3535 C0         192.1748  -163.4594    64.1509 C0            1 RES     
    3536 C0         191.5512  -162.6521    62.9738 C0            1 RES     
    3537 C0         190.1361  -163.0147    62.4773 C0            1 RES     
    3538 C0         189.0306  -163.0048    63.5507 C0            1 RES     
    3539 C0         188.8145  -161.6242    64.1844 C0            1 RES     
    3540 C0         187.6714  -161.6642    65.1963 C0            1 RES     
    3541 C0         193.4219  -165.1009    62.6927 C0            1 RES     
    3542 C0         194.4199  -166.2551    62.6913 C0            1 RES     
    3543 C0         195.1434  -166.3434    61.3349 C0            1 RES     
    3544 C0         196.1157  -167.5320    61.2757 C0            1 RES     
    3545 C0         196.6397  -167.7342    59.8433 C0            1 RES     
    3546 C0         197.4633  -169.0224    59.6598 C0            1 RES     
    3547 C0         196.6137  -170.2973    59.8329 C0            1 RES     
    3548 C0         197.4197  -171.5568    59.5317 C0            1 RES     
    3549 H6         190.6598  -165.6490    63.0896 H6            1 RES     
    3550 H6         190.6642  -165.3649    64.8533 H6            1 RES     
    3551 H6         193.1399  -165.2207    64.8713 H6            1 RES     
    3552 H6         193.1349  -162.9399    64.3694 H6            1 RES     
    3553 H6         191.5559  -163.3215    65.0634 H6            1 RES     
    3554 H6         192.2366  -162.6861    62.1010 H6            1 RES     
    3555 H6         191.5223  -161.5903    63.2984 H6            1 RES     
    3556 H6         190.1535  -163.9947    61.9726 H6            1 RES     
    3557 H6         189.8557  -162.2894    61.6826 H6            1 RES     
    3558 H6         189.2537  -163.7424    64.3433 H6            1 RES     
    3559 H6         188.0832  -163.3174    63.0591 H6            1 RES     
    3560 H6         189.7338  -161.2934    64.7106 H6            1 RES     
    3561 H6         188.5658  -160.8864    63.3910 H6            1 RES     
    3562 H6         186.7262  -161.9740    64.7012 H6            1 RES     
    3563 H6         187.5273  -160.6551    65.6364 H6            1 RES     
    3564 H6         187.9052  -162.3792    66.0139 H6            1 RES     
    3565 H6         194.0704  -164.1999    62.6074 H6            1 RES     
    3566 H6         192.7582  -165.1224    61.8001 H6            1 RES     
    3567 H6         195.1530  -166.1237    63.5169 H6            1 RES     
    3568 H6         193.8794  -167.1766    62.8597 H6            1 RES     
    3569 H6         194.3638  -166.4849    60.5531 H6            1 RES     
    3570 H6         195.6935  -165.4019    61.1179 H6            1 RES     
    3571 H6         196.9590  -167.3859    61.9845 H6            1 RES     
    3572 H6         195.5762  -168.4331    61.5922 H6            1 RES     
    3573 H6         195.7872  -167.7762    59.1294 H6            1 RES     
    3574 H6         197.2677  -166.8567    59.5732 H6            1 RES     
    3575 H6         198.3235  -169.0301    60.3628 H6            1 RES     
    3576 H6         197.8603  -169.0160    58.6211 H6            1 RES     
    3577 H6         195.7464  -170.2630    59.1367 H6            1 RES     
    3578 H6         196.2384  -170.3805    60.8698 H6            1 RES     
    3579 H6         196.7726  -172.4484    59.6603 H6            1 RES     
    3580 H6         197.7928  -171.5369    58.4853 H6            1 RES     
    3581 H6         198.2822  -171.6378    60.2288 H6            1 RES     
    3582 C0         191.4600  -168.3571    63.1579 C0            1 RES     
    3583 C0         192.5950  -169.4316    63.2353 C0            1 RES     
    3584 C0         193.1774  -169.7124    61.8064 C0            1 RES     
    3585 C0         192.3874  -170.5418    60.7641 C0            1 RES     
    3586 C0         191.1228  -169.9120    60.1454 C0            1 RES     
    3587 C0         191.3187  -168.5378    59.4709 C0            1 RES     
    3588 C0         192.3393  -168.5454    58.3253 C0            1 RES     
    3589 C0         192.4335  -167.1640    57.6804 C0            1 RES     
    3590 C0         192.2412  -170.8052    63.8775 C0            1 RES     
    3591 C0         191.9697  -170.7679    65.3720 C0            1 RES     
    3592 C0         191.8116  -172.1645    65.9746 C0            1 RES     
    3593 C0         191.5921  -172.0470    67.4872 C0            1 RES     
    3594 C0         191.4336  -173.4253    68.1405 C0            1 RES     
    3595 C0         191.2771  -173.3456    69.6687 C0            1 RES     
    3596 C0         190.0093  -172.5964    70.1089 C0            1 RES     
    3597 C0         189.8662  -172.6059    71.6271 C0            1 RES     
    3598 H6         190.5672  -168.8800    62.7734 H6            1 RES     
    3599 H6         191.7264  -167.6592    62.3487 H6            1 RES     
    3600 H6         193.4348  -168.9982    63.8128 H6            1 RES     
    3601 H6         194.1154  -170.2854    61.9734 H6            1 RES     
    3602 H6         193.4624  -168.7649    61.3187 H6            1 RES     
    3603 H6         192.1302  -171.5335    61.1887 H6            1 RES     
    3604 H6         193.0879  -170.7438    59.9255 H6            1 RES     
    3605 H6         190.3296  -169.8297    60.9076 H6            1 RES     
    3606 H6         190.7374  -170.6212    59.3810 H6            1 RES     
    3607 H6         191.6286  -167.7794    60.2109 H6            1 RES     
    3608 H6         190.3317  -168.2217    59.0668 H6            1 RES     
    3609 H6         193.3453  -168.8161    58.7091 H6            1 RES     
    3610 H6         192.0331  -169.2856    57.5551 H6            1 RES     
    3611 H6         191.4479  -166.8639    57.2639 H6            1 RES     
    3612 H6         193.1767  -167.1840    56.8564 H6            1 RES     
    3613 H6         192.7547  -166.4085    58.4298 H6            1 RES     
    3614 H6         193.1248  -171.4690    63.7452 H6            1 RES     
    3615 H6         191.3767  -171.2685    63.3544 H6            1 RES     
    3616 H6         192.8395  -170.2932    65.8682 H6            1 RES     
    3617 H6         191.0359  -170.2096    65.5493 H6            1 RES     
    3618 H6         190.9472  -172.6803    65.5032 H6            1 RES     
    3619 H6         192.7341  -172.7585    65.7851 H6            1 RES     
    3620 H6         192.4634  -171.5273    67.9452 H6            1 RES     
    3621 H6         190.6799  -171.4388    67.6576 H6            1 RES     
    3622 H6         190.5569  -173.9505    67.7028 H6            1 RES     
    3623 H6         192.3438  -174.0270    67.9241 H6            1 RES     
    3624 H6         192.1742  -172.8551    70.1073 H6            1 RES     
    3625 H6         191.2267  -174.3867    70.0562 H6            1 RES     
    3626 H6         189.1156  -173.0818    69.6604 H6            1 RES     
    3627 H6         190.0487  -171.5376    69.7789 H6            1 RES     
    3628 H6         188.9438  -172.0591    71.9159 H6            1 RES     
    3629 H6         189.7937  -173.6491    72.0014 H6            1 RES     
    3630 H6         190.7390  -172.1065    72.0994 H6            1 RES     
    3631 H5           5.9255    11.1417    11.2654 H5            1 RES     
    3632 H5         195.9952  -169.2374    71.7715 H5            1 RES     
@<TRIPOS>BOND
       1        1        2 1
       2        1        8 1
       3        1       24 1
       4        1       73 1
       5        2        3 1
       6        2        6 1
       7        3        4 1
       8        3        7 1
       9        4        5 1
      10        5        6 1
      11        5     3631 1
      12        6       12 1
      13        7        8 1
      14        7       11 1
      15        8        9 1
      16        9       10 1
      17        9       13 1
      18       10       11 1
      19       10       16 1
      20       14       15 1
      21       14       22 1
      22       15       16 1
      23       15       23 1
      24       16       17 1
      25       17       18 1
      26       17       21 1
      27       18       19 1
      28       19       20 1
      29       20       21 1
      30       21       22 1
      31       22      126 1
      32       24       25 1
      33       24       40 1
      34       24       41 1
      35       25       26 1
      36       25       32 1
      37       25       42 1
      38       26       27 1
      39       26       43 1
      40       26       44 1
      41       27       28 1
      42       27       45 1
      43       27       46 1
      44       28       29 1
      45       28       47 1
      46       28       48 1
      47       29       30 1
      48       29       49 1
      49       29       50 1
      50       30       31 1
      51       30       51 1
      52       30       52 1
      53       31       53 1
      54       31       54 1
      55       31       55 1
      56       32       33 1
      57       32       56 1
      58       32       57 1
      59       33       34 1
      60       33       58 1
      61       33       59 1
      62       34       35 1
      63       34       60 1
      64       34       61 1
      65       35       36 1
      66       35       62 1
      67       35       63 1
      68       36       37 1
      69       36       64 1
      70       36       65 1
      71       37       38 1
      72       37       66 1
      73       37       67 1
      74       38       39 1
      75       38       68 1
      76       38       69 1
      77       39       70 1
      78       39       71 1
      79       39       72 1
      80       73       74 1
      81       73       89 1
      82       73       90 1
      83       74       75 1
      84       74       81 1
      85       74       91 1
      86       75       76 1
      87       75       92 1
      88       75       93 1
      89       76       77 1
      90       76       94 1
      91       76       95 1
      92       77       78 1
      93       77       96 1
      94       77       97 1
      95       78       79 1
      96       78       98 1
      97       78       99 1
      98       79       80 1
      99       79      100 1
     100       79      101 1
     101       80      102 1
     102       80      103 1
     103       80      104 1
     104       81       82 1
     105       81      105 1
     106       81      106 1
     107       82       83 1
     108       82      107 1
     109       82      108 1
     110       83       84 1
     111       83      109 1
     112       83      110 1
     113       84       85 1
     114       84      111 1
     115       84      112 1
     116       85       86 1
     117       85      113 1
     118       85      114 1
     119       86       87 1
     120       86      115 1
     121       86      116 1
     122       87       88 1
     123       87      117 1
     124       87      118 1
     125       88      119 1
     126       88      120 1
     127       88      121 1
     128      122      123 1
     129      122      129 1
     130      122      145 1
     131      122      194 1
     132      123      124 1
     133      123      127 1
     134      124      125 1
     135      124      128 1
     136      125      126 1
     137      126      127 1
     138      127      133 1
     139      128      129 1
     140      128      132 1
     141      129      130 1
     142      130      131 1
     143      130      134 1
     144      131      132 1
     145      131      137 1
     146      135      136 1
     147      135      143 1
     148      136      137 1
     149      136      144 1
     150      137      138 1
     151      138      139 1
     152      138      142 1
     153      139      140 1
     154      140      141 1
     155      141      142 1
     156      142      143 1
     157      143      247 1
     158      145      146 1
     159      145      161 1
     160      145      162 1
     161      146      147 1
     162      146      153 1
     163      146      163 1
     164      147      148 1
     165      147      164 1
     166      147      165 1
     167      148      149 1
     168      148      166 1
     169      148      167 1
     170      149      150 1
     171      149      168 1
     172      149      169 1
     173      150      151 1
     174      150      170 1
     175      150      171 1
     176      151      152 1
     177      151      172 1
     178      151      173 1
     179      152      174 1
     180      152      175 1
     181      152      176 1
     182      153      154 1
     183      153      177 1
     184      153      178 1
     185      154      155 1
     186      154      179 1
     187      154      180 1
     188      155      156 1
     189      155      181 1
     190      155      182 1
     191      156      157 1
     192      156      183 1
     193      156      184 1
     194      157      158 1
     195      157      185 1
     196      157      186 1
     197      158      159 1
     198      158      187 1
     199      158      188 1
     200      159      160 1
     201      159      189 1
     202      159      190 1
     203      160      191 1
     204      160      192 1
     205      160      193 1
     206      194      195 1
     207      194      210 1
     208      194      211 1
     209      195      196 1
     210      195      202 1
     211      195      212 1
     212      196      197 1
     213      196      213 1
     214      196      214 1
     215      197      198 1
     216      197      215 1
     217      197      216 1
     218      198      199 1
     219      198      217 1
     220      198      218 1
     221      199      200 1
     222      199      219 1
     223      199      220 1
     224      200      201 1
     225      200      221 1
     226      200      222 1
     227      201      223 1
     228      201      224 1
     229      201      225 1
     230      202      203 1
     231      202      226 1
     232      202      227 1
     233      203      204 1
     234      203      228 1
     235      203      229 1
     236      204      205 1
     237      204      230 1
     238      204      231 1
     239      205      206 1
     240      205      232 1
     241      205      233 1
     242      206      207 1
     243      206      234 1
     244      206      235 1
     245      207      208 1
     246      207      236 1
     247      207      237 1
     248      208      209 1
     249      208      238 1
     250      208      239 1
     251      209      240 1
     252      209      241 1
     253      209      242 1
     254      243      244 1
     255      243      250 1
     256      243      266 1
     257      243      315 1
     258      244      245 1
     259      244      248 1
     260      245      246 1
     261      245      249 1
     262      246      247 1
     263      247      248 1
     264      248      254 1
     265      249      250 1
     266      249      253 1
     267      250      251 1
     268      251      252 1
     269      251      255 1
     270      252      253 1
     271      252      258 1
     272      256      257 1
     273      256      264 1
     274      257      258 1
     275      257      265 1
     276      258      259 1
     277      259      260 1
     278      259      263 1
     279      260      261 1
     280      261      262 1
     281      262      263 1
     282      263      264 1
     283      264      368 1
     284      266      267 1
     285      266      282 1
     286      266      283 1
     287      267      268 1
     288      267      274 1
     289      267      284 1
     290      268      269 1
     291      268      285 1
     292      268      286 1
     293      269      270 1
     294      269      287 1
     295      269      288 1
     296      270      271 1
     297      270      289 1
     298      270      290 1
     299      271      272 1
     300      271      291 1
     301      271      292 1
     302      272      273 1
     303      272      293 1
     304      272      294 1
     305      273      295 1
     306      273      296 1
     307      273      297 1
     308      274      275 1
     309      274      298 1
     310      274      299 1
     311      275      276 1
     312      275      300 1
     313      275      301 1
     314      276      277 1
     315      276      302 1
     316      276      303 1
     317      277      278 1
     318      277      304 1
     319      277      305 1
     320      278      279 1
     321      278      306 1
     322      278      307 1
     323      279      280 1
     324      279      308 1
     325      279      309 1
     326      280      281 1
     327      280      310 1
     328      280      311 1
     329      281      312 1
     330      281      313 1
     331      281      314 1
     332      315      316 1
     333      315      331 1
     334      315      332 1
     335      316      317 1
     336      316      323 1
     337      316      333 1
     338      317      318 1
     339      317      334 1
     340      317      335 1
     341      318      319 1
     342      318      336 1
     343      318      337 1
     344      319      320 1
     345      319      338 1
     346      319      339 1
     347      320      321 1
     348      320      340 1
     349      320      341 1
     350      321      322 1
     351      321      342 1
     352      321      343 1
     353      322      344 1
     354      322      345 1
     355      322      346 1
     356      323      324 1
     357      323      347 1
     358      323      348 1
     359      324      325 1
     360      324      349 1
     361      324      350 1
     362      325      326 1
     363      325      351 1
     364      325      352 1
     365      326      327 1
     366      326      353 1
     367      326      354 1
     368      327      328 1
     369      327      355 1
     370      327      356 1
     371      328      329 1
     372      328      357 1
     373      328      358 1
     374      329      330 1
     375      329      359 1
     376      329      360 1
     377      330      361 1
     378      330      362 1
     379      330      363 1
     380      364      365 1
     381      364      371 1
     382      364      387 1
     383      364      436 1
     384      365      366 1
     385      365      369 1
     386      366      367 1
     387      366      370 1
     388      367      368 1
     389      368      369 1
     390      369      375 1
     391      370      371 1
     392      370      374 1
     393      371      372 1
     394      372      373 1
     395      372      376 1
     396      373      374 1
     397      373      379 1
     398      377      378 1
     399      377      385 1
     400      378      379 1
     401      378      386 1
     402      379      380 1
     403      380      381 1
     404      380      384 1
     405      381      382 1
     406      382      383 1
     407      383      384 1
     408      384      385 1
     409      385      489 1
     410      387      388 1
     411      387      403 1
     412      387      404 1
     413      388      389 1
     414      388      395 1
     415      388      405 1
     416      389      390 1
     417      389      406 1
     418      389      407 1
     419      390      391 1
     420      390      408 1
     421      390      409 1
     422      391      392 1
     423      391      410 1
     424      391      411 1
     425      392      393 1
     426      392      412 1
     427      392      413 1
     428      393      394 1
     429      393      414 1
     430      393      415 1
     431      394      416 1
     432      394      417 1
     433      394      418 1
     434      395      396 1
     435      395      419 1
     436      395      420 1
     437      396      397 1
     438      396      421 1
     439      396      422 1
     440      397      398 1
     441      397      423 1
     442      397      424 1
     443      398      399 1
     444      398      425 1
     445      398      426 1
     446      399      400 1
     447      399      427 1
     448      399      428 1
     449      400      401 1
     450      400      429 1
     451      400      430 1
     452      401      402 1
     453      401      431 1
     454      401      432 1
     455      402      433 1
     456      402      434 1
     457      402      435 1
     458      436      437 1
     459      436      452 1
     460      436      453 1
     461      437      438 1
     462      437      444 1
     463      437      454 1
     464      438      439 1
     465      438      455 1
     466      438      456 1
     467      439      440 1
     468      439      457 1
     469      439      458 1
     470      440      441 1
     471      440      459 1
     472      440      460 1
     473      441      442 1
     474      441      461 1
     475      441      462 1
     476      442      443 1
     477      442      463 1
     478      442      464 1
     479      443      465 1
     480      443      466 1
     481      443      467 1
     482      444      445 1
     483      444      468 1
     484      444      469 1
     485      445      446 1
     486      445      470 1
     487      445      471 1
     488      446      447 1
     489      446      472 1
     490      446      473 1
     491      447      448 1
     492      447      474 1
     493      447      475 1
     494      448      449 1
     495      448      476 1
     496      448      477 1
     497      449      450 1
     498      449      478 1
     499      449      479 1
     500      450      451 1
     501      450      480 1
     502      450      481 1
     503      451      482 1
     504      451      483 1
     505      451      484 1
     506      485      486 1
     507      485      492 1
     508      485      508 1
     509      485      557 1
     510      486      487 1
     511      486      490 1
     512      487      488 1
     513      487      491 1
     514      488      489 1
     515      489      490 1
     516      490      496 1
     517      491      492 1
     518      491      495 1
     519      492      493 1
     520      493      494 1
     521      493      497 1
     522      494      495 1
     523      494      500 1
     524      498      499 1
     525      498      506 1
     526      499      500 1
     527      499      507 1
     528      500      501 1
     529      501      502 1
     530      501      505 1
     531      502      503 1
     532      503      504 1
     533      504      505 1
     534      505      506 1
     535      506      610 1
     536      508      509 1
     537      508      524 1
     538      508      525 1
     539      509      510 1
     540      509      516 1
     541      509      526 1
     542      510      511 1
     543      510      527 1
     544      510      528 1
     545      511      512 1
     546      511      529 1
     547      511      530 1
     548      512      513 1
     549      512      531 1
     550      512      532 1
     551      513      514 1
     552      513      533 1
     553      513      534 1
     554      514      515 1
     555      514      535 1
     556      514      536 1
     557      515      537 1
     558      515      538 1
     559      515      539 1
     560      516      517 1
     561      516      540 1
     562      516      541 1
     563      517      518 1
     564      517      542 1
     565      517      543 1
     566      518      519 1
     567      518      544 1
     568      518      545 1
     569      519      520 1
     570      519      546 1
     571      519      547 1
     572      520      521 1
     573      520      548 1
     574      520      549 1
     575      521      522 1
     576      521      550 1
     577      521      551 1
     578      522      523 1
     579      522      552 1
     580      522      553 1
     581      523      554 1
     582      523      555 1
     583      523      556 1
     584      557      558 1
     585      557      573 1
     586      557      574 1
     587      558      559 1
     588      558      565 1
     589      558      575 1
     590      559      560 1
     591      559      576 1
     592      559      577 1
     593      560      561 1
     594      560      578 1
     595      560      579 1
     596      561      562 1
     597      561      580 1
     598      561      581 1
     599      562      563 1
     600      562      582 1
     601      562      583 1
     602      563      564 1
     603      563      584 1
     604      563      585 1
     605      564      586 1
     606      564      587 1
     607      564      588 1
     608      565      566 1
     609      565      589 1
     610      565      590 1
     611      566      567 1
     612      566      591 1
     613      566      592 1
     614      567      568 1
     615      567      593 1
     616      567      594 1
     617      568      569 1
     618      568      595 1
     619      568      596 1
     620      569      570 1
     621      569      597 1
     622      569      598 1
     623      570      571 1
     624      570      599 1
     625      570      600 1
     626      571      572 1
     627      571      601 1
     628      571      602 1
     629      572      603 1
     630      572      604 1
     631      572      605 1
     632      606      607 1
     633      606      613 1
     634      606      629 1
     635      606      678 1
     636      607      608 1
     637      607      611 1
     638      608      609 1
     639      608      612 1
     640      609      610 1
     641      610      611 1
     642      611      617 1
     643      612      613 1
     644      612      616 1
     645      613      614 1
     646      614      615 1
     647      614      618 1
     648      615      616 1
     649      615      621 1
     650      619      620 1
     651      619      627 1
     652      620      621 1
     653      620      628 1
     654      621      622 1
     655      622      623 1
     656      622      626 1
     657      623      624 1
     658      624      625 1
     659      625      626 1
     660      626      627 1
     661      627      731 1
     662      629      630 1
     663      629      645 1
     664      629      646 1
     665      630      631 1
     666      630      637 1
     667      630      647 1
     668      631      632 1
     669      631      648 1
     670      631      649 1
     671      632      633 1
     672      632      650 1
     673      632      651 1
     674      633      634 1
     675      633      652 1
     676      633      653 1
     677      634      635 1
     678      634      654 1
     679      634      655 1
     680      635      636 1
     681      635      656 1
     682      635      657 1
     683      636      658 1
     684      636      659 1
     685      636      660 1
     686      637      638 1
     687      637      661 1
     688      637      662 1
     689      638      639 1
     690      638      663 1
     691      638      664 1
     692      639      640 1
     693      639      665 1
     694      639      666 1
     695      640      641 1
     696      640      667 1
     697      640      668 1
     698      641      642 1
     699      641      669 1
     700      641      670 1
     701      642      643 1
     702      642      671 1
     703      642      672 1
     704      643      644 1
     705      643      673 1
     706      643      674 1
     707      644      675 1
     708      644      676 1
     709      644      677 1
     710      678      679 1
     711      678      694 1
     712      678      695 1
     713      679      680 1
     714      679      686 1
     715      679      696 1
     716      680      681 1
     717      680      697 1
     718      680      698 1
     719      681      682 1
     720      681      699 1
     721      681      700 1
     722      682      683 1
     723      682      701 1
     724      682      702 1
     725      683      684 1
     726      683      703 1
     727      683      704 1
     728      684      685 1
     729      684      705 1
     730      684      706 1
     731      685      707 1
     732      685      708 1
     733      685      709 1
     734      686      687 1
     735      686      710 1
     736      686      711 1
     737      687      688 1
     738      687      712 1
     739      687      713 1
     740      688      689 1
     741      688      714 1
     742      688      715 1
     743      689      690 1
     744      689      716 1
     745      689      717 1
     746      690      691 1
     747      690      718 1
     748      690      719 1
     749      691      692 1
     750      691      720 1
     751      691      721 1
     752      692      693 1
     753      692      722 1
     754      692      723 1
     755      693      724 1
     756      693      725 1
     757      693      726 1
     758      727      728 1
     759      727      734 1
     760      727      750 1
     761      727      799 1
     762      728      729 1
     763      728      732 1
     764      729      730 1
     765      729      733 1
     766      730      731 1
     767      731      732 1
     768      732      738 1
     769      733      734 1
     770      733      737 1
     771      734      735 1
     772      735      736 1
     773      735      739 1
     774      736      737 1
     775      736      742 1
     776      740      741 1
     777      740      748 1
     778      741      742 1
     779      741      749 1
     780      742      743 1
     781      743      744 1
     782      743      747 1
     783      744      745 1
     784      745      746 1
     785      746      747 1
     786      747      748 1
     787      748      852 1
     788      750      751 1
     789      750      766 1
     790      750      767 1
     791      751      752 1
     792      751      758 1
     793      751      768 1
     794      752      753 1
     795      752      769 1
     796      752      770 1
     797      753      754 1
     798      753      771 1
     799      753      772 1
     800      754      755 1
     801      754      773 1
     802      754      774 1
     803      755      756 1
     804      755      775 1
     805      755      776 1
     806      756      757 1
     807      756      777 1
     808      756      778 1
     809      757      779 1
     810      757      780 1
     811      757      781 1
     812      758      759 1
     813      758      782 1
     814      758      783 1
     815      759      760 1
     816      759      784 1
     817      759      785 1
     818      760      761 1
     819      760      786 1
     820      760      787 1
     821      761      762 1
     822      761      788 1
     823      761      789 1
     824      762      763 1
     825      762      790 1
     826      762      791 1
     827      763      764 1
     828      763      792 1
     829      763      793 1
     830      764      765 1
     831      764      794 1
     832      764      795 1
     833      765      796 1
     834      765      797 1
     835      765      798 1
     836      799      800 1
     837      799      815 1
     838      799      816 1
     839      800      801 1
     840      800      807 1
     841      800      817 1
     842      801      802 1
     843      801      818 1
     844      801      819 1
     845      802      803 1
     846      802      820 1
     847      802      821 1
     848      803      804 1
     849      803      822 1
     850      803      823 1
     851      804      805 1
     852      804      824 1
     853      804      825 1
     854      805      806 1
     855      805      826 1
     856      805      827 1
     857      806      828 1
     858      806      829 1
     859      806      830 1
     860      807      808 1
     861      807      831 1
     862      807      832 1
     863      808      809 1
     864      808      833 1
     865      808      834 1
     866      809      810 1
     867      809      835 1
     868      809      836 1
     869      810      811 1
     870      810      837 1
     871      810      838 1
     872      811      812 1
     873      811      839 1
     874      811      840 1
     875      812      813 1
     876      812      841 1
     877      812      842 1
     878      813      814 1
     879      813      843 1
     880      813      844 1
     881      814      845 1
     882      814      846 1
     883      814      847 1
     884      848      849 1
     885      848      855 1
     886      848      871 1
     887      848      920 1
     888      849      850 1
     889      849      853 1
     890      850      851 1
     891      850      854 1
     892      851      852 1
     893      852      853 1
     894      853      859 1
     895      854      855 1
     896      854      858 1
     897      855      856 1
     898      856      857 1
     899      856      860 1
     900      857      858 1
     901      857      863 1
     902      861      862 1
     903      861      869 1
     904      862      863 1
     905      862      870 1
     906      863      864 1
     907      864      865 1
     908      864      868 1
     909      865      866 1
     910      866      867 1
     911      867      868 1
     912      868      869 1
     913      869      973 1
     914      871      872 1
     915      871      887 1
     916      871      888 1
     917      872      873 1
     918      872      879 1
     919      872      889 1
     920      873      874 1
     921      873      890 1
     922      873      891 1
     923      874      875 1
     924      874      892 1
     925      874      893 1
     926      875      876 1
     927      875      894 1
     928      875      895 1
     929      876      877 1
     930      876      896 1
     931      876      897 1
     932      877      878 1
     933      877      898 1
     934      877      899 1
     935      878      900 1
     936      878      901 1
     937      878      902 1
     938      879      880 1
     939      879      903 1
     940      879      904 1
     941      880      881 1
     942      880      905 1
     943      880      906 1
     944      881      882 1
     945      881      907 1
     946      881      908 1
     947      882      883 1
     948      882      909 1
     949      882      910 1
     950      883      884 1
     951      883      911 1
     952      883      912 1
     953      884      885 1
     954      884      913 1
     955      884      914 1
     956      885      886 1
     957      885      915 1
     958      885      916 1
     959      886      917 1
     960      886      918 1
     961      886      919 1
     962      920      921 1
     963      920      936 1
     964      920      937 1
     965      921      922 1
     966      921      928 1
     967      921      938 1
     968      922      923 1
     969      922      939 1
     970      922      940 1
     971      923      924 1
     972      923      941 1
     973      923      942 1
     974      924      925 1
     975      924      943 1
     976      924      944 1
     977      925      926 1
     978      925      945 1
     979      925      946 1
     980      926      927 1
     981      926      947 1
     982      926      948 1
     983      927      949 1
     984      927      950 1
     985      927      951 1
     986      928      929 1
     987      928      952 1
     988      928      953 1
     989      929      930 1
     990      929      954 1
     991      929      955 1
     992      930      931 1
     993      930      956 1
     994      930      957 1
     995      931      932 1
     996      931      958 1
     997      931      959 1
     998      932      933 1
     999      932      960 1
    1000      932      961 1
    1001      933      934 1
    1002      933      962 1
    1003      933      963 1
    1004      934      935 1
    1005      934      964 1
    1006      934      965 1
    1007      935      966 1
    1008      935      967 1
    1009      935      968 1
    1010      969      970 1
    1011      969      976 1
    1012      969      992 1
    1013      969     1041 1
    1014      970      971 1
    1015      970      974 1
    1016      971      972 1
    1017      971      975 1
    1018      972      973 1
    1019      973      974 1
    1020      974      980 1
    1021      975      976 1
    1022      975      979 1
    1023      976      977 1
    1024      977      978 1
    1025      977      981 1
    1026      978      979 1
    1027      978      984 1
    1028      982      983 1
    1029      982      990 1
    1030      983      984 1
    1031      983      991 1
    1032      984      985 1
    1033      985      986 1
    1034      985      989 1
    1035      986      987 1
    1036      987      988 1
    1037      988      989 1
    1038      989      990 1
    1039      990     1094 1
    1040      992      993 1
    1041      992     1008 1
    1042      992     1009 1
    1043      993      994 1
    1044      993     1000 1
    1045      993     1010 1
    1046      994      995 1
    1047      994     1011 1
    1048      994     1012 1
    1049      995      996 1
    1050      995     1013 1
    1051      995     1014 1
    1052      996      997 1
    1053      996     1015 1
    1054      996     1016 1
    1055      997      998 1
    1056      997     1017 1
    1057      997     1018 1
    1058      998      999 1
    1059      998     1019 1
    1060      998     1020 1
    1061      999     1021 1
    1062      999     1022 1
    1063      999     1023 1
    1064     1000     1001 1
    1065     1000     1024 1
    1066     1000     1025 1
    1067     1001     1002 1
    1068     1001     1026 1
    1069     1001     1027 1
    1070     1002     1003 1
    1071     1002     1028 1
    1072     1002     1029 1
    1073     1003     1004 1
    1074     1003     1030 1
    1075     1003     1031 1
    1076     1004     1005 1
    1077     1004     1032 1
    1078     1004     1033 1
    1079     1005     1006 1
    1080     1005     1034 1
    1081     1005     1035 1
    1082     1006     1007 1
    1083     1006     1036 1
    1084     1006     1037 1
    1085     1007     1038 1
    1086     1007     1039 1
    1087     1007     1040 1
    1088     1041     1042 1
    1089     1041     1057 1
    1090     1041     1058 1
    1091     1042     1043 1
    1092     1042     1049 1
    1093     1042     1059 1
    1094     1043     1044 1
    1095     1043     1060 1
    1096     1043     1061 1
    1097     1044     1045 1
    1098     1044     1062 1
    1099     1044     1063 1
    1100     1045     1046 1
    1101     1045     1064 1
    1102     1045     1065 1
    1103     1046     1047 1
    1104     1046     1066 1
    1105     1046     1067 1
    1106     1047     1048 1
    1107     1047     1068 1
    1108     1047     1069 1
    1109     1048     1070 1
    1110     1048     1071 1
    1111     1048     1072 1
    1112     1049     1050 1
    1113     1049     1073 1
    1114     1049     1074 1
    1115     1050     1051 1
    1116     1050     1075 1
    1117     1050     1076 1
    1118     1051     1052 1
    1119     1051     1077 1
    1120     1051     1078 1
    1121     1052     1053 1
    1122     1052     1079 1
    1123     1052     1080 1
    1124     1053     1054 1
    1125     1053     1081 1
    1126     1053     1082 1
    1127     1054     1055 1
    1128     1054     1083 1
    1129     1054     1084 1
    1130     1055     1056 1
    1131     1055     1085 1
    1132     1055     1086 1
    1133     1056     1087 1
    1134     1056     1088 1
    1135     1056     1089 1
    1136     1090     1091 1
    1137     1090     1097 1
    1138     1090     1113 1
    1139     1090     1162 1
    1140     1091     1092 1
    1141     1091     1095 1
    1142     1092     1093 1
    1143     1092     1096 1
    1144     1093     1094 1
    1145     1094     1095 1
    1146     1095     1101 1
    1147     1096     1097 1
    1148     1096     1100 1
    1149     1097     1098 1
    1150     1098     1099 1
    1151     1098     1102 1
    1152     1099     1100 1
    1153     1099     1105 1
    1154     1103     1104 1
    1155     1103     1111 1
    1156     1104     1105 1
    1157     1104     1112 1
    1158     1105     1106 1
    1159     1106     1107 1
    1160     1106     1110 1
    1161     1107     1108 1
    1162     1108     1109 1
    1163     1109     1110 1
    1164     1110     1111 1
    1165     1111     1215 1
    1166     1113     1114 1
    1167     1113     1129 1
    1168     1113     1130 1
    1169     1114     1115 1
    1170     1114     1121 1
    1171     1114     1131 1
    1172     1115     1116 1
    1173     1115     1132 1
    1174     1115     1133 1
    1175     1116     1117 1
    1176     1116     1134 1
    1177     1116     1135 1
    1178     1117     1118 1
    1179     1117     1136 1
    1180     1117     1137 1
    1181     1118     1119 1
    1182     1118     1138 1
    1183     1118     1139 1
    1184     1119     1120 1
    1185     1119     1140 1
    1186     1119     1141 1
    1187     1120     1142 1
    1188     1120     1143 1
    1189     1120     1144 1
    1190     1121     1122 1
    1191     1121     1145 1
    1192     1121     1146 1
    1193     1122     1123 1
    1194     1122     1147 1
    1195     1122     1148 1
    1196     1123     1124 1
    1197     1123     1149 1
    1198     1123     1150 1
    1199     1124     1125 1
    1200     1124     1151 1
    1201     1124     1152 1
    1202     1125     1126 1
    1203     1125     1153 1
    1204     1125     1154 1
    1205     1126     1127 1
    1206     1126     1155 1
    1207     1126     1156 1
    1208     1127     1128 1
    1209     1127     1157 1
    1210     1127     1158 1
    1211     1128     1159 1
    1212     1128     1160 1
    1213     1128     1161 1
    1214     1162     1163 1
    1215     1162     1178 1
    1216     1162     1179 1
    1217     1163     1164 1
    1218     1163     1170 1
    1219     1163     1180 1
    1220     1164     1165 1
    1221     1164     1181 1
    1222     1164     1182 1
    1223     1165     1166 1
    1224     1165     1183 1
    1225     1165     1184 1
    1226     1166     1167 1
    1227     1166     1185 1
    1228     1166     1186 1
    1229     1167     1168 1
    1230     1167     1187 1
    1231     1167     1188 1
    1232     1168     1169 1
    1233     1168     1189 1
    1234     1168     1190 1
    1235     1169     1191 1
    1236     1169     1192 1
    1237     1169     1193 1
    1238     1170     1171 1
    1239     1170     1194 1
    1240     1170     1195 1
    1241     1171     1172 1
    1242     1171     1196 1
    1243     1171     1197 1
    1244     1172     1173 1
    1245     1172     1198 1
    1246     1172     1199 1
    1247     1173     1174 1
    1248     1173     1200 1
    1249     1173     1201 1
    1250     1174     1175 1
    1251     1174     1202 1
    1252     1174     1203 1
    1253     1175     1176 1
    1254     1175     1204 1
    1255     1175     1205 1
    1256     1176     1177 1
    1257     1176     1206 1
    1258     1176     1207 1
    1259     1177     1208 1
    1260     1177     1209 1
    1261     1177     1210 1
    1262     1211     1212 1
    1263     1211     1218 1
    1264     1211     1234 1
    1265     1211     1283 1
    1266     1212     1213 1
    1267     1212     1216 1
    1268     1213     1214 1
    1269     1213     1217 1
    1270     1214     1215 1
    1271     1215     1216 1
    1272     1216     1222 1
    1273     1217     1218 1
    1274     1217     1221 1
    1275     1218     1219 1
    1276     1219     1220 1
    1277     1219     1223 1
    1278     1220     1221 1
    1279     1220     1226 1
    1280     1224     1225 1
    1281     1224     1232 1
    1282     1225     1226 1
    1283     1225     1233 1
    1284     1226     1227 1
    1285     1227     1228 1
    1286     1227     1231 1
    1287     1228     1229 1
    1288     1229     1230 1
    1289     1230     1231 1
    1290     1231     1232 1
    1291     1232     1336 1
    1292     1234     1235 1
    1293     1234     1250 1
    1294     1234     1251 1
    1295     1235     1236 1
    1296     1235     1242 1
    1297     1235     1252 1
    1298     1236     1237 1
    1299     1236     1253 1
    1300     1236     1254 1
    1301     1237     1238 1
    1302     1237     1255 1
    1303     1237     1256 1
    1304     1238     1239 1
    1305     1238     1257 1
    1306     1238     1258 1
    1307     1239     1240 1
    1308     1239     1259 1
    1309     1239     1260 1
    1310     1240     1241 1
    1311     1240     1261 1
    1312     1240     1262 1
    1313     1241     1263 1
    1314     1241     1264 1
    1315     1241     1265 1
    1316     1242     1243 1
    1317     1242     1266 1
    1318     1242     1267 1
    1319     1243     1244 1
    1320     1243     1268 1
    1321     1243     1269 1
    1322     1244     1245 1
    1323     1244     1270 1
    1324     1244     1271 1
    1325     1245     1246 1
    1326     1245     1272 1
    1327     1245     1273 1
    1328     1246     1247 1
    1329     1246     1274 1
    1330     1246     1275 1
    1331     1247     1248 1
    1332     1247     1276 1
    1333     1247     1277 1
    1334     1248     1249 1
    1335     1248     1278 1
    1336     1248     1279 1
    1337     1249     1280 1
    1338     1249     1281 1
    1339     1249     1282 1
    1340     1283     1284 1
    1341     1283     1299 1
    1342     1283     1300 1
    1343     1284     1285 1
    1344     1284     1291 1
    1345     1284     1301 1
    1346     1285     1286 1
    1347     1285     1302 1
    1348     1285     1303 1
    1349     1286     1287 1
    1350     1286     1304 1
    1351     1286     1305 1
    1352     1287     1288 1
    1353     1287     1306 1
    1354     1287     1307 1
    1355     1288     1289 1
    1356     1288     1308 1
    1357     1288     1309 1
    1358     1289     1290 1
    1359     1289     1310 1
    1360     1289     1311 1
    1361     1290     1312 1
    1362     1290     1313 1
    1363     1290     1314 1
    1364     1291     1292 1
    1365     1291     1315 1
    1366     1291     1316 1
    1367     1292     1293 1
    1368     1292     1317 1
    1369     1292     1318 1
    1370     1293     1294 1
    1371     1293     1319 1
    1372     1293     1320 1
    1373     1294     1295 1
    1374     1294     1321 1
    1375     1294     1322 1
    1376     1295     1296 1
    1377     1295     1323 1
    1378     1295     1324 1
    1379     1296     1297 1
    1380     1296     1325 1
    1381     1296     1326 1
    1382     1297     1298 1
    1383     1297     1327 1
    1384     1297     1328 1
    1385     1298     1329 1
    1386     1298     1330 1
    1387     1298     1331 1
    1388     1332     1333 1
    1389     1332     1339 1
    1390     1332     1355 1
    1391     1332     1404 1
    1392     1333     1334 1
    1393     1333     1337 1
    1394     1334     1335 1
    1395     1334     1338 1
    1396     1335     1336 1
    1397     1336     1337 1
    1398     1337     1343 1
    1399     1338     1339 1
    1400     1338     1342 1
    1401     1339     1340 1
    1402     1340     1341 1
    1403     1340     1344 1
    1404     1341     1342 1
    1405     1341     1347 1
    1406     1345     1346 1
    1407     1345     1353 1
    1408     1346     1347 1
    1409     1346     1354 1
    1410     1347     1348 1
    1411     1348     1349 1
    1412     1348     1352 1
    1413     1349     1350 1
    1414     1350     1351 1
    1415     1351     1352 1
    1416     1352     1353 1
    1417     1353     1457 1
    1418     1355     1356 1
    1419     1355     1371 1
    1420     1355     1372 1
    1421     1356     1357 1
    1422     1356     1363 1
    1423     1356     1373 1
    1424     1357     1358 1
    1425     1357     1374 1
    1426     1357     1375 1
    1427     1358     1359 1
    1428     1358     1376 1
    1429     1358     1377 1
    1430     1359     1360 1
    1431     1359     1378 1
    1432     1359     1379 1
    1433     1360     1361 1
    1434     1360     1380 1
    1435     1360     1381 1
    1436     1361     1362 1
    1437     1361     1382 1
    1438     1361     1383 1
    1439     1362     1384 1
    1440     1362     1385 1
    1441     1362     1386 1
    1442     1363     1364 1
    1443     1363     1387 1
    1444     1363     1388 1
    1445     1364     1365 1
    1446     1364     1389 1
    1447     1364     1390 1
    1448     1365     1366 1
    1449     1365     1391 1
    1450     1365     1392 1
    1451     1366     1367 1
    1452     1366     1393 1
    1453     1366     1394 1
    1454     1367     1368 1
    1455     1367     1395 1
    1456     1367     1396 1
    1457     1368     1369 1
    1458     1368     1397 1
    1459     1368     1398 1
    1460     1369     1370 1
    1461     1369     1399 1
    1462     1369     1400 1
    1463     1370     1401 1
    1464     1370     1402 1
    1465     1370     1403 1
    1466     1404     1405 1
    1467     1404     1420 1
    1468     1404     1421 1
    1469     1405     1406 1
    1470     1405     1412 1
    1471     1405     1422 1
    1472     1406     1407 1
    1473     1406     1423 1
    1474     1406     1424 1
    1475     1407     1408 1
    1476     1407     1425 1
    1477     1407     1426 1
    1478     1408     1409 1
    1479     1408     1427 1
    1480     1408     1428 1
    1481     1409     1410 1
    1482     1409     1429 1
    1483     1409     1430 1
    1484     1410     1411 1
    1485     1410     1431 1
    1486     1410     1432 1
    1487     1411     1433 1
    1488     1411     1434 1
    1489     1411     1435 1
    1490     1412     1413 1
    1491     1412     1436 1
    1492     1412     1437 1
    1493     1413     1414 1
    1494     1413     1438 1
    1495     1413     1439 1
    1496     1414     1415 1
    1497     1414     1440 1
    1498     1414     1441 1
    1499     1415     1416 1
    1500     1415     1442 1
    1501     1415     1443 1
    1502     1416     1417 1
    1503     1416     1444 1
    1504     1416     1445 1
    1505     1417     1418 1
    1506     1417     1446 1
    1507     1417     1447 1
    1508     1418     1419 1
    1509     1418     1448 1
    1510     1418     1449 1
    1511     1419     1450 1
    1512     1419     1451 1
    1513     1419     1452 1
    1514     1453     1454 1
    1515     1453     1460 1
    1516     1453     1476 1
    1517     1453     1525 1
    1518     1454     1455 1
    1519     1454     1458 1
    1520     1455     1456 1
    1521     1455     1459 1
    1522     1456     1457 1
    1523     1457     1458 1
    1524     1458     1464 1
    1525     1459     1460 1
    1526     1459     1463 1
    1527     1460     1461 1
    1528     1461     1462 1
    1529     1461     1465 1
    1530     1462     1463 1
    1531     1462     1468 1
    1532     1466     1467 1
    1533     1466     1474 1
    1534     1467     1468 1
    1535     1467     1475 1
    1536     1468     1469 1
    1537     1469     1470 1
    1538     1469     1473 1
    1539     1470     1471 1
    1540     1471     1472 1
    1541     1472     1473 1
    1542     1473     1474 1
    1543     1474     1578 1
    1544     1476     1477 1
    1545     1476     1492 1
    1546     1476     1493 1
    1547     1477     1478 1
    1548     1477     1484 1
    1549     1477     1494 1
    1550     1478     1479 1
    1551     1478     1495 1
    1552     1478     1496 1
    1553     1479     1480 1
    1554     1479     1497 1
    1555     1479     1498 1
    1556     1480     1481 1
    1557     1480     1499 1
    1558     1480     1500 1
    1559     1481     1482 1
    1560     1481     1501 1
    1561     1481     1502 1
    1562     1482     1483 1
    1563     1482     1503 1
    1564     1482     1504 1
    1565     1483     1505 1
    1566     1483     1506 1
    1567     1483     1507 1
    1568     1484     1485 1
    1569     1484     1508 1
    1570     1484     1509 1
    1571     1485     1486 1
    1572     1485     1510 1
    1573     1485     1511 1
    1574     1486     1487 1
    1575     1486     1512 1
    1576     1486     1513 1
    1577     1487     1488 1
    1578     1487     1514 1
    1579     1487     1515 1
    1580     1488     1489 1
    1581     1488     1516 1
    1582     1488     1517 1
    1583     1489     1490 1
    1584     1489     1518 1
    1585     1489     1519 1
    1586     1490     1491 1
    1587     1490     1520 1
    1588     1490     1521 1
    1589     1491     1522 1
    1590     1491     1523 1
    1591     1491     1524 1
    1592     1525     1526 1
    1593     1525     1541 1
    1594     1525     1542 1
    1595     1526     1527 1
    1596     1526     1533 1
    1597     1526     1543 1
    1598     1527     1528 1
    1599     1527     1544 1
    1600     1527     1545 1
    1601     1528     1529 1
    1602     1528     1546 1
    1603     1528     1547 1
    1604     1529     1530 1
    1605     1529     1548 1
    1606     1529     1549 1
    1607     1530     1531 1
    1608     1530     1550 1
    1609     1530     1551 1
    1610     1531     1532 1
    1611     1531     1552 1
    1612     1531     1553 1
    1613     1532     1554 1
    1614     1532     1555 1
    1615     1532     1556 1
    1616     1533     1534 1
    1617     1533     1557 1
    1618     1533     1558 1
    1619     1534     1535 1
    1620     1534     1559 1
    1621     1534     1560 1
    1622     1535     1536 1
    1623     1535     1561 1
    1624     1535     1562 1
    1625     1536     1537 1
    1626     1536     1563 1
    1627     1536     1564 1
    1628     1537     1538 1
    1629     1537     1565 1
    1630     1537     1566 1
    1631     1538     1539 1
    1632     1538     1567 1
    1633     1538     1568 1
    1634     1539     1540 1
    1635     1539     1569 1
    1636     1539     1570 1
    1637     1540     1571 1
    1638     1540     1572 1
    1639     1540     1573 1
    1640     1574     1575 1
    1641     1574     1581 1
    1642     1574     1597 1
    1643     1574     1646 1
    1644     1575     1576 1
    1645     1575     1579 1
    1646     1576     1577 1
    1647     1576     1580 1
    1648     1577     1578 1
    1649     1578     1579 1
    1650     1579     1585 1
    1651     1580     1581 1
    1652     1580     1584 1
    1653     1581     1582 1
    1654     1582     1583 1
    1655     1582     1586 1
    1656     1583     1584 1
    1657     1583     1589 1
    1658     1587     1588 1
    1659     1587     1595 1
    1660     1588     1589 1
    1661     1588     1596 1
    1662     1589     1590 1
    1663     1590     1591 1
    1664     1590     1594 1
    1665     1591     1592 1
    1666     1592     1593 1
    1667     1593     1594 1
    1668     1594     1595 1
    1669     1595     1699 1
    1670     1597     1598 1
    1671     1597     1613 1
    1672     1597     1614 1
    1673     1598     1599 1
    1674     1598     1605 1
    1675     1598     1615 1
    1676     1599     1600 1
    1677     1599     1616 1
    1678     1599     1617 1
    1679     1600     1601 1
    1680     1600     1618 1
    1681     1600     1619 1
    1682     1601     1602 1
    1683     1601     1620 1
    1684     1601     1621 1
    1685     1602     1603 1
    1686     1602     1622 1
    1687     1602     1623 1
    1688     1603     1604 1
    1689     1603     1624 1
    1690     1603     1625 1
    1691     1604     1626 1
    1692     1604     1627 1
    1693     1604     1628 1
    1694     1605     1606 1
    1695     1605     1629 1
    1696     1605     1630 1
    1697     1606     1607 1
    1698     1606     1631 1
    1699     1606     1632 1
    1700     1607     1608 1
    1701     1607     1633 1
    1702     1607     1634 1
    1703     1608     1609 1
    1704     1608     1635 1
    1705     1608     1636 1
    1706     1609     1610 1
    1707     1609     1637 1
    1708     1609     1638 1
    1709     1610     1611 1
    1710     1610     1639 1
    1711     1610     1640 1
    1712     1611     1612 1
    1713     1611     1641 1
    1714     1611     1642 1
    1715     1612     1643 1
    1716     1612     1644 1
    1717     1612     1645 1
    1718     1646     1647 1
    1719     1646     1662 1
    1720     1646     1663 1
    1721     1647     1648 1
    1722     1647     1654 1
    1723     1647     1664 1
    1724     1648     1649 1
    1725     1648     1665 1
    1726     1648     1666 1
    1727     1649     1650 1
    1728     1649     1667 1
    1729     1649     1668 1
    1730     1650     1651 1
    1731     1650     1669 1
    1732     1650     1670 1
    1733     1651     1652 1
    1734     1651     1671 1
    1735     1651     1672 1
    1736     1652     1653 1
    1737     1652     1673 1
    1738     1652     1674 1
    1739     1653     1675 1
    1740     1653     1676 1
    1741     1653     1677 1
    1742     1654     1655 1
    1743     1654     1678 1
    1744     1654     1679 1
    1745     1655     1656 1
    1746     1655     1680 1
    1747     1655     1681 1
    1748     1656     1657 1
    1749     1656     1682 1
    1750     1656     1683 1
    1751     1657     1658 1
    1752     1657     1684 1
    1753     1657     1685 1
    1754     1658     1659 1
    1755     1658     1686 1
    1756     1658     1687 1
    1757     1659     1660 1
    1758     1659     1688 1
    1759     1659     1689 1
    1760     1660     1661 1
    1761     1660     1690 1
    1762     1660     1691 1
    1763     1661     1692 1
    1764     1661     1693 1
    1765     1661     1694 1
    1766     1695     1696 1
    1767     1695     1702 1
    1768     1695     1718 1
    1769     1695     1767 1
    1770     1696     1697 1
    1771     1696     1700 1
    1772     1697     1698 1
    1773     1697     1701 1
    1774     1698     1699 1
    1775     1699     1700 1
    1776     1700     1706 1
    1777     1701     1702 1
    1778     1701     1705 1
    1779     1702     1703 1
    1780     1703     1704 1
    1781     1703     1707 1
    1782     1704     1705 1
    1783     1704     1710 1
    1784     1708     1709 1
    1785     1708     1716 1
    1786     1709     1710 1
    1787     1709     1717 1
    1788     1710     1711 1
    1789     1711     1712 1
    1790     1711     1715 1
    1791     1712     1713 1
    1792     1713     1714 1
    1793     1714     1715 1
    1794     1715     1716 1
    1795     1716     1820 1
    1796     1718     1719 1
    1797     1718     1734 1
    1798     1718     1735 1
    1799     1719     1720 1
    1800     1719     1726 1
    1801     1719     1736 1
    1802     1720     1721 1
    1803     1720     1737 1
    1804     1720     1738 1
    1805     1721     1722 1
    1806     1721     1739 1
    1807     1721     1740 1
    1808     1722     1723 1
    1809     1722     1741 1
    1810     1722     1742 1
    1811     1723     1724 1
    1812     1723     1743 1
    1813     1723     1744 1
    1814     1724     1725 1
    1815     1724     1745 1
    1816     1724     1746 1
    1817     1725     1747 1
    1818     1725     1748 1
    1819     1725     1749 1
    1820     1726     1727 1
    1821     1726     1750 1
    1822     1726     1751 1
    1823     1727     1728 1
    1824     1727     1752 1
    1825     1727     1753 1
    1826     1728     1729 1
    1827     1728     1754 1
    1828     1728     1755 1
    1829     1729     1730 1
    1830     1729     1756 1
    1831     1729     1757 1
    1832     1730     1731 1
    1833     1730     1758 1
    1834     1730     1759 1
    1835     1731     1732 1
    1836     1731     1760 1
    1837     1731     1761 1
    1838     1732     1733 1
    1839     1732     1762 1
    1840     1732     1763 1
    1841     1733     1764 1
    1842     1733     1765 1
    1843     1733     1766 1
    1844     1767     1768 1
    1845     1767     1783 1
    1846     1767     1784 1
    1847     1768     1769 1
    1848     1768     1775 1
    1849     1768     1785 1
    1850     1769     1770 1
    1851     1769     1786 1
    1852     1769     1787 1
    1853     1770     1771 1
    1854     1770     1788 1
    1855     1770     1789 1
    1856     1771     1772 1
    1857     1771     1790 1
    1858     1771     1791 1
    1859     1772     1773 1
    1860     1772     1792 1
    1861     1772     1793 1
    1862     1773     1774 1
    1863     1773     1794 1
    1864     1773     1795 1
    1865     1774     1796 1
    1866     1774     1797 1
    1867     1774     1798 1
    1868     1775     1776 1
    1869     1775     1799 1
    1870     1775     1800 1
    1871     1776     1777 1
    1872     1776     1801 1
    1873     1776     1802 1
    1874     1777     1778 1
    1875     1777     1803 1
    1876     1777     1804 1
    1877     1778     1779 1
    1878     1778     1805 1
    1879     1778     1806 1
    1880     1779     1780 1
    1881     1779     1807 1
    1882     1779     1808 1
    1883     1780     1781 1
    1884     1780     1809 1
    1885     1780     1810 1
    1886     1781     1782 1
    1887     1781     1811 1
    1888     1781     1812 1
    1889     1782     1813 1
    1890     1782     1814 1
    1891     1782     1815 1
    1892     1816     1817 1
    1893     1816     1823 1
    1894     1816     1839 1
    1895     1816     1888 1
    1896     1817     1818 1
    1897     1817     1821 1
    1898     1818     1819 1
    1899     1818     1822 1
    1900     1819     1820 1
    1901     1820     1821 1
    1902     1821     1827 1
    1903     1822     1823 1
    1904     1822     1826 1
    1905     1823     1824 1
    1906     1824     1825 1
    1907     1824     1828 1
    1908     1825     1826 1
    1909     1825     1831 1
    1910     1829     1830 1
    1911     1829     1837 1
    1912     1830     1831 1
    1913     1830     1838 1
    1914     1831     1832 1
    1915     1832     1833 1
    1916     1832     1836 1
    1917     1833     1834 1
    1918     1834     1835 1
    1919     1835     1836 1
    1920     1836     1837 1
    1921     1837     1941 1
    1922     1839     1840 1
    1923     1839     1855 1
    1924     1839     1856 1
    1925     1840     1841 1
    1926     1840     1847 1
    1927     1840     1857 1
    1928     1841     1842 1
    1929     1841     1858 1
    1930     1841     1859 1
    1931     1842     1843 1
    1932     1842     1860 1
    1933     1842     1861 1
    1934     1843     1844 1
    1935     1843     1862 1
    1936     1843     1863 1
    1937     1844     1845 1
    1938     1844     1864 1
    1939     1844     1865 1
    1940     1845     1846 1
    1941     1845     1866 1
    1942     1845     1867 1
    1943     1846     1868 1
    1944     1846     1869 1
    1945     1846     1870 1
    1946     1847     1848 1
    1947     1847     1871 1
    1948     1847     1872 1
    1949     1848     1849 1
    1950     1848     1873 1
    1951     1848     1874 1
    1952     1849     1850 1
    1953     1849     1875 1
    1954     1849     1876 1
    1955     1850     1851 1
    1956     1850     1877 1
    1957     1850     1878 1
    1958     1851     1852 1
    1959     1851     1879 1
    1960     1851     1880 1
    1961     1852     1853 1
    1962     1852     1881 1
    1963     1852     1882 1
    1964     1853     1854 1
    1965     1853     1883 1
    1966     1853     1884 1
    1967     1854     1885 1
    1968     1854     1886 1
    1969     1854     1887 1
    1970     1888     1889 1
    1971     1888     1904 1
    1972     1888     1905 1
    1973     1889     1890 1
    1974     1889     1896 1
    1975     1889     1906 1
    1976     1890     1891 1
    1977     1890     1907 1
    1978     1890     1908 1
    1979     1891     1892 1
    1980     1891     1909 1
    1981     1891     1910 1
    1982     1892     1893 1
    1983     1892     1911 1
    1984     1892     1912 1
    1985     1893     1894 1
    1986     1893     1913 1
    1987     1893     1914 1
    1988     1894     1895 1
    1989     1894     1915 1
    1990     1894     1916 1
    1991     1895     1917 1
    1992     1895     1918 1
    1993     1895     1919 1
    1994     1896     1897 1
    1995     1896     1920 1
    1996     1896     1921 1
    1997     1897     1898 1
    1998     1897     1922 1
    1999     1897     1923 1
    2000     1898     1899 1
    2001     1898     1924 1
    2002     1898     1925 1
    2003     1899     1900 1
    2004     1899     1926 1
    2005     1899     1927 1
    2006     1900     1901 1
    2007     1900     1928 1
    2008     1900     1929 1
    2009     1901     1902 1
    2010     1901     1930 1
    2011     1901     1931 1
    2012     1902     1903 1
    2013     1902     1932 1
    2014     1902     1933 1
    2015     1903     1934 1
    2016     1903     1935 1
    2017     1903     1936 1
    2018     1937     1938 1
    2019     1937     1944 1
    2020     1937     1960 1
    2021     1937     2009 1
    2022     1938     1939 1
    2023     1938     1942 1
    2024     1939     1940 1
    2025     1939     1943 1
    2026     1940     1941 1
    2027     1941     1942 1
    2028     1942     1948 1
    2029     1943     1944 1
    2030     1943     1947 1
    2031     1944     1945 1
    2032     1945     1946 1
    2033     1945     1949 1
    2034     1946     1947 1
    2035     1946     1952 1
    2036     1950     1951 1
    2037     1950     1958 1
    2038     1951     1952 1
    2039     1951     1959 1
    2040     1952     1953 1
    2041     1953     1954 1
    2042     1953     1957 1
    2043     1954     1955 1
    2044     1955     1956 1
    2045     1956     1957 1
    2046     1957     1958 1
    2047     1958     2062 1
    2048     1960     1961 1
    2049     1960     1976 1
    2050     1960     1977 1
    2051     1961     1962 1
    2052     1961     1968 1
    2053     1961     1978 1
    2054     1962     1963 1
    2055     1962     1979 1
    2056     1962     1980 1
    2057     1963     1964 1
    2058     1963     1981 1
    2059     1963     1982 1
    2060     1964     1965 1
    2061     1964     1983 1
    2062     1964     1984 1
    2063     1965     1966 1
    2064     1965     1985 1
    2065     1965     1986 1
    2066     1966     1967 1
    2067     1966     1987 1
    2068     1966     1988 1
    2069     1967     1989 1
    2070     1967     1990 1
    2071     1967     1991 1
    2072     1968     1969 1
    2073     1968     1992 1
    2074     1968     1993 1
    2075     1969     1970 1
    2076     1969     1994 1
    2077     1969     1995 1
    2078     1970     1971 1
    2079     1970     1996 1
    2080     1970     1997 1
    2081     1971     1972 1
    2082     1971     1998 1
    2083     1971     1999 1
    2084     1972     1973 1
    2085     1972     2000 1
    2086     1972     2001 1
    2087     1973     1974 1
    2088     1973     2002 1
    2089     1973     2003 1
    2090     1974     1975 1
    2091     1974     2004 1
    2092     1974     2005 1
    2093     1975     2006 1
    2094     1975     2007 1
    2095     1975     2008 1
    2096     2009     2010 1
    2097     2009     2025 1
    2098     2009     2026 1
    2099     2010     2011 1
    2100     2010     2017 1
    2101     2010     2027 1
    2102     2011     2012 1
    2103     2011     2028 1
    2104     2011     2029 1
    2105     2012     2013 1
    2106     2012     2030 1
    2107     2012     2031 1
    2108     2013     2014 1
    2109     2013     2032 1
    2110     2013     2033 1
    2111     2014     2015 1
    2112     2014     2034 1
    2113     2014     2035 1
    2114     2015     2016 1
    2115     2015     2036 1
    2116     2015     2037 1
    2117     2016     2038 1
    2118     2016     2039 1
    2119     2016     2040 1
    2120     2017     2018 1
    2121     2017     2041 1
    2122     2017     2042 1
    2123     2018     2019 1
    2124     2018     2043 1
    2125     2018     2044 1
    2126     2019     2020 1
    2127     2019     2045 1
    2128     2019     2046 1
    2129     2020     2021 1
    2130     2020     2047 1
    2131     2020     2048 1
    2132     2021     2022 1
    2133     2021     2049 1
    2134     2021     2050 1
    2135     2022     2023 1
    2136     2022     2051 1
    2137     2022     2052 1
    2138     2023     2024 1
    2139     2023     2053 1
    2140     2023     2054 1
    2141     2024     2055 1
    2142     2024     2056 1
    2143     2024     2057 1
    2144     2058     2059 1
    2145     2058     2065 1
    2146     2058     2081 1
    2147     2058     2130 1
    2148     2059     2060 1
    2149     2059     2063 1
    2150     2060     2061 1
    2151     2060     2064 1
    2152     2061     2062 1
    2153     2062     2063 1
    2154     2063     2069 1
    2155     2064     2065 1
    2156     2064     2068 1
    2157     2065     2066 1
    2158     2066     2067 1
    2159     2066     2070 1
    2160     2067     2068 1
    2161     2067     2073 1
    2162     2071     2072 1
    2163     2071     2079 1
    2164     2072     2073 1
    2165     2072     2080 1
    2166     2073     2074 1
    2167     2074     2075 1
    2168     2074     2078 1
    2169     2075     2076 1
    2170     2076     2077 1
    2171     2077     2078 1
    2172     2078     2079 1
    2173     2079     2183 1
    2174     2081     2082 1
    2175     2081     2097 1
    2176     2081     2098 1
    2177     2082     2083 1
    2178     2082     2089 1
    2179     2082     2099 1
    2180     2083     2084 1
    2181     2083     2100 1
    2182     2083     2101 1
    2183     2084     2085 1
    2184     2084     2102 1
    2185     2084     2103 1
    2186     2085     2086 1
    2187     2085     2104 1
    2188     2085     2105 1
    2189     2086     2087 1
    2190     2086     2106 1
    2191     2086     2107 1
    2192     2087     2088 1
    2193     2087     2108 1
    2194     2087     2109 1
    2195     2088     2110 1
    2196     2088     2111 1
    2197     2088     2112 1
    2198     2089     2090 1
    2199     2089     2113 1
    2200     2089     2114 1
    2201     2090     2091 1
    2202     2090     2115 1
    2203     2090     2116 1
    2204     2091     2092 1
    2205     2091     2117 1
    2206     2091     2118 1
    2207     2092     2093 1
    2208     2092     2119 1
    2209     2092     2120 1
    2210     2093     2094 1
    2211     2093     2121 1
    2212     2093     2122 1
    2213     2094     2095 1
    2214     2094     2123 1
    2215     2094     2124 1
    2216     2095     2096 1
    2217     2095     2125 1
    2218     2095     2126 1
    2219     2096     2127 1
    2220     2096     2128 1
    2221     2096     2129 1
    2222     2130     2131 1
    2223     2130     2146 1
    2224     2130     2147 1
    2225     2131     2132 1
    2226     2131     2138 1
    2227     2131     2148 1
    2228     2132     2133 1
    2229     2132     2149 1
    2230     2132     2150 1
    2231     2133     2134 1
    2232     2133     2151 1
    2233     2133     2152 1
    2234     2134     2135 1
    2235     2134     2153 1
    2236     2134     2154 1
    2237     2135     2136 1
    2238     2135     2155 1
    2239     2135     2156 1
    2240     2136     2137 1
    2241     2136     2157 1
    2242     2136     2158 1
    2243     2137     2159 1
    2244     2137     2160 1
    2245     2137     2161 1
    2246     2138     2139 1
    2247     2138     2162 1
    2248     2138     2163 1
    2249     2139     2140 1
    2250     2139     2164 1
    2251     2139     2165 1
    2252     2140     2141 1
    2253     2140     2166 1
    2254     2140     2167 1
    2255     2141     2142 1
    2256     2141     2168 1
    2257     2141     2169 1
    2258     2142     2143 1
    2259     2142     2170 1
    2260     2142     2171 1
    2261     2143     2144 1
    2262     2143     2172 1
    2263     2143     2173 1
    2264     2144     2145 1
    2265     2144     2174 1
    2266     2144     2175 1
    2267     2145     2176 1
    2268     2145     2177 1
    2269     2145     2178 1
    2270     2179     2180 1
    2271     2179     2186 1
    2272     2179     2202 1
    2273     2179     2251 1
    2274     2180     2181 1
    2275     2180     2184 1
    2276     2181     2182 1
    2277     2181     2185 1
    2278     2182     2183 1
    2279     2183     2184 1
    2280     2184     2190 1
    2281     2185     2186 1
    2282     2185     2189 1
    2283     2186     2187 1
    2284     2187     2188 1
    2285     2187     2191 1
    2286     2188     2189 1
    2287     2188     2194 1
    2288     2192     2193 1
    2289     2192     2200 1
    2290     2193     2194 1
    2291     2193     2201 1
    2292     2194     2195 1
    2293     2195     2196 1
    2294     2195     2199 1
    2295     2196     2197 1
    2296     2197     2198 1
    2297     2198     2199 1
    2298     2199     2200 1
    2299     2200     2304 1
    2300     2202     2203 1
    2301     2202     2218 1
    2302     2202     2219 1
    2303     2203     2204 1
    2304     2203     2210 1
    2305     2203     2220 1
    2306     2204     2205 1
    2307     2204     2221 1
    2308     2204     2222 1
    2309     2205     2206 1
    2310     2205     2223 1
    2311     2205     2224 1
    2312     2206     2207 1
    2313     2206     2225 1
    2314     2206     2226 1
    2315     2207     2208 1
    2316     2207     2227 1
    2317     2207     2228 1
    2318     2208     2209 1
    2319     2208     2229 1
    2320     2208     2230 1
    2321     2209     2231 1
    2322     2209     2232 1
    2323     2209     2233 1
    2324     2210     2211 1
    2325     2210     2234 1
    2326     2210     2235 1
    2327     2211     2212 1
    2328     2211     2236 1
    2329     2211     2237 1
    2330     2212     2213 1
    2331     2212     2238 1
    2332     2212     2239 1
    2333     2213     2214 1
    2334     2213     2240 1
    2335     2213     2241 1
    2336     2214     2215 1
    2337     2214     2242 1
    2338     2214     2243 1
    2339     2215     2216 1
    2340     2215     2244 1
    2341     2215     2245 1
    2342     2216     2217 1
    2343     2216     2246 1
    2344     2216     2247 1
    2345     2217     2248 1
    2346     2217     2249 1
    2347     2217     2250 1
    2348     2251     2252 1
    2349     2251     2267 1
    2350     2251     2268 1
    2351     2252     2253 1
    2352     2252     2259 1
    2353     2252     2269 1
    2354     2253     2254 1
    2355     2253     2270 1
    2356     2253     2271 1
    2357     2254     2255 1
    2358     2254     2272 1
    2359     2254     2273 1
    2360     2255     2256 1
    2361     2255     2274 1
    2362     2255     2275 1
    2363     2256     2257 1
    2364     2256     2276 1
    2365     2256     2277 1
    2366     2257     2258 1
    2367     2257     2278 1
    2368     2257     2279 1
    2369     2258     2280 1
    2370     2258     2281 1
    2371     2258     2282 1
    2372     2259     2260 1
    2373     2259     2283 1
    2374     2259     2284 1
    2375     2260     2261 1
    2376     2260     2285 1
    2377     2260     2286 1
    2378     2261     2262 1
    2379     2261     2287 1
    2380     2261     2288 1
    2381     2262     2263 1
    2382     2262     2289 1
    2383     2262     2290 1
    2384     2263     2264 1
    2385     2263     2291 1
    2386     2263     2292 1
    2387     2264     2265 1
    2388     2264     2293 1
    2389     2264     2294 1
    2390     2265     2266 1
    2391     2265     2295 1
    2392     2265     2296 1
    2393     2266     2297 1
    2394     2266     2298 1
    2395     2266     2299 1
    2396     2300     2301 1
    2397     2300     2307 1
    2398     2300     2323 1
    2399     2300     2372 1
    2400     2301     2302 1
    2401     2301     2305 1
    2402     2302     2303 1
    2403     2302     2306 1
    2404     2303     2304 1
    2405     2304     2305 1
    2406     2305     2311 1
    2407     2306     2307 1
    2408     2306     2310 1
    2409     2307     2308 1
    2410     2308     2309 1
    2411     2308     2312 1
    2412     2309     2310 1
    2413     2309     2315 1
    2414     2313     2314 1
    2415     2313     2321 1
    2416     2314     2315 1
    2417     2314     2322 1
    2418     2315     2316 1
    2419     2316     2317 1
    2420     2316     2320 1
    2421     2317     2318 1
    2422     2318     2319 1
    2423     2319     2320 1
    2424     2320     2321 1
    2425     2321     2425 1
    2426     2323     2324 1
    2427     2323     2339 1
    2428     2323     2340 1
    2429     2324     2325 1
    2430     2324     2331 1
    2431     2324     2341 1
    2432     2325     2326 1
    2433     2325     2342 1
    2434     2325     2343 1
    2435     2326     2327 1
    2436     2326     2344 1
    2437     2326     2345 1
    2438     2327     2328 1
    2439     2327     2346 1
    2440     2327     2347 1
    2441     2328     2329 1
    2442     2328     2348 1
    2443     2328     2349 1
    2444     2329     2330 1
    2445     2329     2350 1
    2446     2329     2351 1
    2447     2330     2352 1
    2448     2330     2353 1
    2449     2330     2354 1
    2450     2331     2332 1
    2451     2331     2355 1
    2452     2331     2356 1
    2453     2332     2333 1
    2454     2332     2357 1
    2455     2332     2358 1
    2456     2333     2334 1
    2457     2333     2359 1
    2458     2333     2360 1
    2459     2334     2335 1
    2460     2334     2361 1
    2461     2334     2362 1
    2462     2335     2336 1
    2463     2335     2363 1
    2464     2335     2364 1
    2465     2336     2337 1
    2466     2336     2365 1
    2467     2336     2366 1
    2468     2337     2338 1
    2469     2337     2367 1
    2470     2337     2368 1
    2471     2338     2369 1
    2472     2338     2370 1
    2473     2338     2371 1
    2474     2372     2373 1
    2475     2372     2388 1
    2476     2372     2389 1
    2477     2373     2374 1
    2478     2373     2380 1
    2479     2373     2390 1
    2480     2374     2375 1
    2481     2374     2391 1
    2482     2374     2392 1
    2483     2375     2376 1
    2484     2375     2393 1
    2485     2375     2394 1
    2486     2376     2377 1
    2487     2376     2395 1
    2488     2376     2396 1
    2489     2377     2378 1
    2490     2377     2397 1
    2491     2377     2398 1
    2492     2378     2379 1
    2493     2378     2399 1
    2494     2378     2400 1
    2495     2379     2401 1
    2496     2379     2402 1
    2497     2379     2403 1
    2498     2380     2381 1
    2499     2380     2404 1
    2500     2380     2405 1
    2501     2381     2382 1
    2502     2381     2406 1
    2503     2381     2407 1
    2504     2382     2383 1
    2505     2382     2408 1
    2506     2382     2409 1
    2507     2383     2384 1
    2508     2383     2410 1
    2509     2383     2411 1
    2510     2384     2385 1
    2511     2384     2412 1
    2512     2384     2413 1
    2513     2385     2386 1
    2514     2385     2414 1
    2515     2385     2415 1
    2516     2386     2387 1
    2517     2386     2416 1
    2518     2386     2417 1
    2519     2387     2418 1
    2520     2387     2419 1
    2521     2387     2420 1
    2522     2421     2422 1
    2523     2421     2428 1
    2524     2421     2444 1
    2525     2421     2493 1
    2526     2422     2423 1
    2527     2422     2426 1
    2528     2423     2424 1
    2529     2423     2427 1
    2530     2424     2425 1
    2531     2425     2426 1
    2532     2426     2432 1
    2533     2427     2428 1
    2534     2427     2431 1
    2535     2428     2429 1
    2536     2429     2430 1
    2537     2429     2433 1
    2538     2430     2431 1
    2539     2430     2436 1
    2540     2434     2435 1
    2541     2434     2442 1
    2542     2435     2436 1
    2543     2435     2443 1
    2544     2436     2437 1
    2545     2437     2438 1
    2546     2437     2441 1
    2547     2438     2439 1
    2548     2439     2440 1
    2549     2440     2441 1
    2550     2441     2442 1
    2551     2442     2546 1
    2552     2444     2445 1
    2553     2444     2460 1
    2554     2444     2461 1
    2555     2445     2446 1
    2556     2445     2452 1
    2557     2445     2462 1
    2558     2446     2447 1
    2559     2446     2463 1
    2560     2446     2464 1
    2561     2447     2448 1
    2562     2447     2465 1
    2563     2447     2466 1
    2564     2448     2449 1
    2565     2448     2467 1
    2566     2448     2468 1
    2567     2449     2450 1
    2568     2449     2469 1
    2569     2449     2470 1
    2570     2450     2451 1
    2571     2450     2471 1
    2572     2450     2472 1
    2573     2451     2473 1
    2574     2451     2474 1
    2575     2451     2475 1
    2576     2452     2453 1
    2577     2452     2476 1
    2578     2452     2477 1
    2579     2453     2454 1
    2580     2453     2478 1
    2581     2453     2479 1
    2582     2454     2455 1
    2583     2454     2480 1
    2584     2454     2481 1
    2585     2455     2456 1
    2586     2455     2482 1
    2587     2455     2483 1
    2588     2456     2457 1
    2589     2456     2484 1
    2590     2456     2485 1
    2591     2457     2458 1
    2592     2457     2486 1
    2593     2457     2487 1
    2594     2458     2459 1
    2595     2458     2488 1
    2596     2458     2489 1
    2597     2459     2490 1
    2598     2459     2491 1
    2599     2459     2492 1
    2600     2493     2494 1
    2601     2493     2509 1
    2602     2493     2510 1
    2603     2494     2495 1
    2604     2494     2501 1
    2605     2494     2511 1
    2606     2495     2496 1
    2607     2495     2512 1
    2608     2495     2513 1
    2609     2496     2497 1
    2610     2496     2514 1
    2611     2496     2515 1
    2612     2497     2498 1
    2613     2497     2516 1
    2614     2497     2517 1
    2615     2498     2499 1
    2616     2498     2518 1
    2617     2498     2519 1
    2618     2499     2500 1
    2619     2499     2520 1
    2620     2499     2521 1
    2621     2500     2522 1
    2622     2500     2523 1
    2623     2500     2524 1
    2624     2501     2502 1
    2625     2501     2525 1
    2626     2501     2526 1
    2627     2502     2503 1
    2628     2502     2527 1
    2629     2502     2528 1
    2630     2503     2504 1
    2631     2503     2529 1
    2632     2503     2530 1
    2633     2504     2505 1
    2634     2504     2531 1
    2635     2504     2532 1
    2636     2505     2506 1
    2637     2505     2533 1
    2638     2505     2534 1
    2639     2506     2507 1
    2640     2506     2535 1
    2641     2506     2536 1
    2642     2507     2508 1
    2643     2507     2537 1
    2644     2507     2538 1
    2645     2508     2539 1
    2646     2508     2540 1
    2647     2508     2541 1
    2648     2542     2543 1
    2649     2542     2549 1
    2650     2542     2565 1
    2651     2542     2614 1
    2652     2543     2544 1
    2653     2543     2547 1
    2654     2544     2545 1
    2655     2544     2548 1
    2656     2545     2546 1
    2657     2546     2547 1
    2658     2547     2553 1
    2659     2548     2549 1
    2660     2548     2552 1
    2661     2549     2550 1
    2662     2550     2551 1
    2663     2550     2554 1
    2664     2551     2552 1
    2665     2551     2557 1
    2666     2555     2556 1
    2667     2555     2563 1
    2668     2556     2557 1
    2669     2556     2564 1
    2670     2557     2558 1
    2671     2558     2559 1
    2672     2558     2562 1
    2673     2559     2560 1
    2674     2560     2561 1
    2675     2561     2562 1
    2676     2562     2563 1
    2677     2563     2667 1
    2678     2565     2566 1
    2679     2565     2581 1
    2680     2565     2582 1
    2681     2566     2567 1
    2682     2566     2573 1
    2683     2566     2583 1
    2684     2567     2568 1
    2685     2567     2584 1
    2686     2567     2585 1
    2687     2568     2569 1
    2688     2568     2586 1
    2689     2568     2587 1
    2690     2569     2570 1
    2691     2569     2588 1
    2692     2569     2589 1
    2693     2570     2571 1
    2694     2570     2590 1
    2695     2570     2591 1
    2696     2571     2572 1
    2697     2571     2592 1
    2698     2571     2593 1
    2699     2572     2594 1
    2700     2572     2595 1
    2701     2572     2596 1
    2702     2573     2574 1
    2703     2573     2597 1
    2704     2573     2598 1
    2705     2574     2575 1
    2706     2574     2599 1
    2707     2574     2600 1
    2708     2575     2576 1
    2709     2575     2601 1
    2710     2575     2602 1
    2711     2576     2577 1
    2712     2576     2603 1
    2713     2576     2604 1
    2714     2577     2578 1
    2715     2577     2605 1
    2716     2577     2606 1
    2717     2578     2579 1
    2718     2578     2607 1
    2719     2578     2608 1
    2720     2579     2580 1
    2721     2579     2609 1
    2722     2579     2610 1
    2723     2580     2611 1
    2724     2580     2612 1
    2725     2580     2613 1
    2726     2614     2615 1
    2727     2614     2630 1
    2728     2614     2631 1
    2729     2615     2616 1
    2730     2615     2622 1
    2731     2615     2632 1
    2732     2616     2617 1
    2733     2616     2633 1
    2734     2616     2634 1
    2735     2617     2618 1
    2736     2617     2635 1
    2737     2617     2636 1
    2738     2618     2619 1
    2739     2618     2637 1
    2740     2618     2638 1
    2741     2619     2620 1
    2742     2619     2639 1
    2743     2619     2640 1
    2744     2620     2621 1
    2745     2620     2641 1
    2746     2620     2642 1
    2747     2621     2643 1
    2748     2621     2644 1
    2749     2621     2645 1
    2750     2622     2623 1
    2751     2622     2646 1
    2752     2622     2647 1
    2753     2623     2624 1
    2754     2623     2648 1
    2755     2623     2649 1
    2756     2624     2625 1
    2757     2624     2650 1
    2758     2624     2651 1
    2759     2625     2626 1
    2760     2625     2652 1
    2761     2625     2653 1
    2762     2626     2627 1
    2763     2626     2654 1
    2764     2626     2655 1
    2765     2627     2628 1
    2766     2627     2656 1
    2767     2627     2657 1
    2768     2628     2629 1
    2769     2628     2658 1
    2770     2628     2659 1
    2771     2629     2660 1
    2772     2629     2661 1
    2773     2629     2662 1
    2774     2663     2664 1
    2775     2663     2670 1
    2776     2663     2686 1
    2777     2663     2735 1
    2778     2664     2665 1
    2779     2664     2668 1
    2780     2665     2666 1
    2781     2665     2669 1
    2782     2666     2667 1
    2783     2667     2668 1
    2784     2668     2674 1
    2785     2669     2670 1
    2786     2669     2673 1
    2787     2670     2671 1
    2788     2671     2672 1
    2789     2671     2675 1
    2790     2672     2673 1
    2791     2672     2678 1
    2792     2676     2677 1
    2793     2676     2684 1
    2794     2677     2678 1
    2795     2677     2685 1
    2796     2678     2679 1
    2797     2679     2680 1
    2798     2679     2683 1
    2799     2680     2681 1
    2800     2681     2682 1
    2801     2682     2683 1
    2802     2683     2684 1
    2803     2684     2788 1
    2804     2686     2687 1
    2805     2686     2702 1
    2806     2686     2703 1
    2807     2687     2688 1
    2808     2687     2694 1
    2809     2687     2704 1
    2810     2688     2689 1
    2811     2688     2705 1
    2812     2688     2706 1
    2813     2689     2690 1
    2814     2689     2707 1
    2815     2689     2708 1
    2816     2690     2691 1
    2817     2690     2709 1
    2818     2690     2710 1
    2819     2691     2692 1
    2820     2691     2711 1
    2821     2691     2712 1
    2822     2692     2693 1
    2823     2692     2713 1
    2824     2692     2714 1
    2825     2693     2715 1
    2826     2693     2716 1
    2827     2693     2717 1
    2828     2694     2695 1
    2829     2694     2718 1
    2830     2694     2719 1
    2831     2695     2696 1
    2832     2695     2720 1
    2833     2695     2721 1
    2834     2696     2697 1
    2835     2696     2722 1
    2836     2696     2723 1
    2837     2697     2698 1
    2838     2697     2724 1
    2839     2697     2725 1
    2840     2698     2699 1
    2841     2698     2726 1
    2842     2698     2727 1
    2843     2699     2700 1
    2844     2699     2728 1
    2845     2699     2729 1
    2846     2700     2701 1
    2847     2700     2730 1
    2848     2700     2731 1
    2849     2701     2732 1
    2850     2701     2733 1
    2851     2701     2734 1
    2852     2735     2736 1
    2853     2735     2751 1
    2854     2735     2752 1
    2855     2736     2737 1
    2856     2736     2743 1
    2857     2736     2753 1
    2858     2737     2738 1
    2859     2737     2754 1
    2860     2737     2755 1
    2861     2738     2739 1
    2862     2738     2756 1
    2863     2738     2757 1
    2864     2739     2740 1
    2865     2739     2758 1
    2866     2739     2759 1
    2867     2740     2741 1
    2868     2740     2760 1
    2869     2740     2761 1
    2870     2741     2742 1
    2871     2741     2762 1
    2872     2741     2763 1
    2873     2742     2764 1
    2874     2742     2765 1
    2875     2742     2766 1
    2876     2743     2744 1
    2877     2743     2767 1
    2878     2743     2768 1
    2879     2744     2745 1
    2880     2744     2769 1
    2881     2744     2770 1
    2882     2745     2746 1
    2883     2745     2771 1
    2884     2745     2772 1
    2885     2746     2747 1
    2886     2746     2773 1
    2887     2746     2774 1
    2888     2747     2748 1
    2889     2747     2775 1
    2890     2747     2776 1
    2891     2748     2749 1
    2892     2748     2777 1
    2893     2748     2778 1
    2894     2749     2750 1
    2895     2749     2779 1
    2896     2749     2780 1
    2897     2750     2781 1
    2898     2750     2782 1
    2899     2750     2783 1
    2900     2784     2785 1
    2901     2784     2791 1
    2902     2784     2807 1
    2903     2784     2856 1
    2904     2785     2786 1
    2905     2785     2789 1
    2906     2786     2787 1
    2907     2786     2790 1
    2908     2787     2788 1
    2909     2788     2789 1
    2910     2789     2795 1
    2911     2790     2791 1
    2912     2790     2794 1
    2913     2791     2792 1
    2914     2792     2793 1
    2915     2792     2796 1
    2916     2793     2794 1
    2917     2793     2799 1
    2918     2797     2798 1
    2919     2797     2805 1
    2920     2798     2799 1
    2921     2798     2806 1
    2922     2799     2800 1
    2923     2800     2801 1
    2924     2800     2804 1
    2925     2801     2802 1
    2926     2802     2803 1
    2927     2803     2804 1
    2928     2804     2805 1
    2929     2805     2909 1
    2930     2807     2808 1
    2931     2807     2823 1
    2932     2807     2824 1
    2933     2808     2809 1
    2934     2808     2815 1
    2935     2808     2825 1
    2936     2809     2810 1
    2937     2809     2826 1
    2938     2809     2827 1
    2939     2810     2811 1
    2940     2810     2828 1
    2941     2810     2829 1
    2942     2811     2812 1
    2943     2811     2830 1
    2944     2811     2831 1
    2945     2812     2813 1
    2946     2812     2832 1
    2947     2812     2833 1
    2948     2813     2814 1
    2949     2813     2834 1
    2950     2813     2835 1
    2951     2814     2836 1
    2952     2814     2837 1
    2953     2814     2838 1
    2954     2815     2816 1
    2955     2815     2839 1
    2956     2815     2840 1
    2957     2816     2817 1
    2958     2816     2841 1
    2959     2816     2842 1
    2960     2817     2818 1
    2961     2817     2843 1
    2962     2817     2844 1
    2963     2818     2819 1
    2964     2818     2845 1
    2965     2818     2846 1
    2966     2819     2820 1
    2967     2819     2847 1
    2968     2819     2848 1
    2969     2820     2821 1
    2970     2820     2849 1
    2971     2820     2850 1
    2972     2821     2822 1
    2973     2821     2851 1
    2974     2821     2852 1
    2975     2822     2853 1
    2976     2822     2854 1
    2977     2822     2855 1
    2978     2856     2857 1
    2979     2856     2872 1
    2980     2856     2873 1
    2981     2857     2858 1
    2982     2857     2864 1
    2983     2857     2874 1
    2984     2858     2859 1
    2985     2858     2875 1
    2986     2858     2876 1
    2987     2859     2860 1
    2988     2859     2877 1
    2989     2859     2878 1
    2990     2860     2861 1
    2991     2860     2879 1
    2992     2860     2880 1
    2993     2861     2862 1
    2994     2861     2881 1
    2995     2861     2882 1
    2996     2862     2863 1
    2997     2862     2883 1
    2998     2862     2884 1
    2999     2863     2885 1
    3000     2863     2886 1
    3001     2863     2887 1
    3002     2864     2865 1
    3003     2864     2888 1
    3004     2864     2889 1
    3005     2865     2866 1
    3006     2865     2890 1
    3007     2865     2891 1
    3008     2866     2867 1
    3009     2866     2892 1
    3010     2866     2893 1
    3011     2867     2868 1
    3012     2867     2894 1
    3013     2867     2895 1
    3014     2868     2869 1
    3015     2868     2896 1
    3016     2868     2897 1
    3017     2869     2870 1
    3018     2869     2898 1
    3019     2869     2899 1
    3020     2870     2871 1
    3021     2870     2900 1
    3022     2870     2901 1
    3023     2871     2902 1
    3024     2871     2903 1
    3025     2871     2904 1
    3026     2905     2906 1
    3027     2905     2912 1
    3028     2905     2928 1
    3029     2905     2977 1
    3030     2906     2907 1
    3031     2906     2910 1
    3032     2907     2908 1
    3033     2907     2911 1
    3034     2908     2909 1
    3035     2909     2910 1
    3036     2910     2916 1
    3037     2911     2912 1
    3038     2911     2915 1
    3039     2912     2913 1
    3040     2913     2914 1
    3041     2913     2917 1
    3042     2914     2915 1
    3043     2914     2920 1
    3044     2918     2919 1
    3045     2918     2926 1
    3046     2919     2920 1
    3047     2919     2927 1
    3048     2920     2921 1
    3049     2921     2922 1
    3050     2921     2925 1
    3051     2922     2923 1
    3052     2923     2924 1
    3053     2924     2925 1
    3054     2925     2926 1
    3055     2926     3030 1
    3056     2928     2929 1
    3057     2928     2944 1
    3058     2928     2945 1
    3059     2929     2930 1
    3060     2929     2936 1
    3061     2929     2946 1
    3062     2930     2931 1
    3063     2930     2947 1
    3064     2930     2948 1
    3065     2931     2932 1
    3066     2931     2949 1
    3067     2931     2950 1
    3068     2932     2933 1
    3069     2932     2951 1
    3070     2932     2952 1
    3071     2933     2934 1
    3072     2933     2953 1
    3073     2933     2954 1
    3074     2934     2935 1
    3075     2934     2955 1
    3076     2934     2956 1
    3077     2935     2957 1
    3078     2935     2958 1
    3079     2935     2959 1
    3080     2936     2937 1
    3081     2936     2960 1
    3082     2936     2961 1
    3083     2937     2938 1
    3084     2937     2962 1
    3085     2937     2963 1
    3086     2938     2939 1
    3087     2938     2964 1
    3088     2938     2965 1
    3089     2939     2940 1
    3090     2939     2966 1
    3091     2939     2967 1
    3092     2940     2941 1
    3093     2940     2968 1
    3094     2940     2969 1
    3095     2941     2942 1
    3096     2941     2970 1
    3097     2941     2971 1
    3098     2942     2943 1
    3099     2942     2972 1
    3100     2942     2973 1
    3101     2943     2974 1
    3102     2943     2975 1
    3103     2943     2976 1
    3104     2977     2978 1
    3105     2977     2993 1
    3106     2977     2994 1
    3107     2978     2979 1
    3108     2978     2985 1
    3109     2978     2995 1
    3110     2979     2980 1
    3111     2979     2996 1
    3112     2979     2997 1
    3113     2980     2981 1
    3114     2980     2998 1
    3115     2980     2999 1
    3116     2981     2982 1
    3117     2981     3000 1
    3118     2981     3001 1
    3119     2982     2983 1
    3120     2982     3002 1
    3121     2982     3003 1
    3122     2983     2984 1
    3123     2983     3004 1
    3124     2983     3005 1
    3125     2984     3006 1
    3126     2984     3007 1
    3127     2984     3008 1
    3128     2985     2986 1
    3129     2985     3009 1
    3130     2985     3010 1
    3131     2986     2987 1
    3132     2986     3011 1
    3133     2986     3012 1
    3134     2987     2988 1
    3135     2987     3013 1
    3136     2987     3014 1
    3137     2988     2989 1
    3138     2988     3015 1
    3139     2988     3016 1
    3140     2989     2990 1
    3141     2989     3017 1
    3142     2989     3018 1
    3143     2990     2991 1
    3144     2990     3019 1
    3145     2990     3020 1
    3146     2991     2992 1
    3147     2991     3021 1
    3148     2991     3022 1
    3149     2992     3023 1
    3150     2992     3024 1
    3151     2992     3025 1
    3152     3026     3027 1
    3153     3026     3033 1
    3154     3026     3049 1
    3155     3026     3098 1
    3156     3027     3028 1
    3157     3027     3031 1
    3158     3028     3029 1
    3159     3028     3032 1
    3160     3029     3030 1
    3161     3030     3031 1
    3162     3031     3037 1
    3163     3032     3033 1
    3164     3032     3036 1
    3165     3033     3034 1
    3166     3034     3035 1
    3167     3034     3038 1
    3168     3035     3036 1
    3169     3035     3041 1
    3170     3039     3040 1
    3171     3039     3047 1
    3172     3040     3041 1
    3173     3040     3048 1
    3174     3041     3042 1
    3175     3042     3043 1
    3176     3042     3046 1
    3177     3043     3044 1
    3178     3044     3045 1
    3179     3045     3046 1
    3180     3046     3047 1
    3181     3047     3151 1
    3182     3049     3050 1
    3183     3049     3065 1
    3184     3049     3066 1
    3185     3050     3051 1
    3186     3050     3057 1
    3187     3050     3067 1
    3188     3051     3052 1
    3189     3051     3068 1
    3190     3051     3069 1
    3191     3052     3053 1
    3192     3052     3070 1
    3193     3052     3071 1
    3194     3053     3054 1
    3195     3053     3072 1
    3196     3053     3073 1
    3197     3054     3055 1
    3198     3054     3074 1
    3199     3054     3075 1
    3200     3055     3056 1
    3201     3055     3076 1
    3202     3055     3077 1
    3203     3056     3078 1
    3204     3056     3079 1
    3205     3056     3080 1
    3206     3057     3058 1
    3207     3057     3081 1
    3208     3057     3082 1
    3209     3058     3059 1
    3210     3058     3083 1
    3211     3058     3084 1
    3212     3059     3060 1
    3213     3059     3085 1
    3214     3059     3086 1
    3215     3060     3061 1
    3216     3060     3087 1
    3217     3060     3088 1
    3218     3061     3062 1
    3219     3061     3089 1
    3220     3061     3090 1
    3221     3062     3063 1
    3222     3062     3091 1
    3223     3062     3092 1
    3224     3063     3064 1
    3225     3063     3093 1
    3226     3063     3094 1
    3227     3064     3095 1
    3228     3064     3096 1
    3229     3064     3097 1
    3230     3098     3099 1
    3231     3098     3114 1
    3232     3098     3115 1
    3233     3099     3100 1
    3234     3099     3106 1
    3235     3099     3116 1
    3236     3100     3101 1
    3237     3100     3117 1
    3238     3100     3118 1
    3239     3101     3102 1
    3240     3101     3119 1
    3241     3101     3120 1
    3242     3102     3103 1
    3243     3102     3121 1
    3244     3102     3122 1
    3245     3103     3104 1
    3246     3103     3123 1
    3247     3103     3124 1
    3248     3104     3105 1
    3249     3104     3125 1
    3250     3104     3126 1
    3251     3105     3127 1
    3252     3105     3128 1
    3253     3105     3129 1
    3254     3106     3107 1
    3255     3106     3130 1
    3256     3106     3131 1
    3257     3107     3108 1
    3258     3107     3132 1
    3259     3107     3133 1
    3260     3108     3109 1
    3261     3108     3134 1
    3262     3108     3135 1
    3263     3109     3110 1
    3264     3109     3136 1
    3265     3109     3137 1
    3266     3110     3111 1
    3267     3110     3138 1
    3268     3110     3139 1
    3269     3111     3112 1
    3270     3111     3140 1
    3271     3111     3141 1
    3272     3112     3113 1
    3273     3112     3142 1
    3274     3112     3143 1
    3275     3113     3144 1
    3276     3113     3145 1
    3277     3113     3146 1
    3278     3147     3148 1
    3279     3147     3154 1
    3280     3147     3170 1
    3281     3147     3219 1
    3282     3148     3149 1
    3283     3148     3152 1
    3284     3149     3150 1
    3285     3149     3153 1
    3286     3150     3151 1
    3287     3151     3152 1
    3288     3152     3158 1
    3289     3153     3154 1
    3290     3153     3157 1
    3291     3154     3155 1
    3292     3155     3156 1
    3293     3155     3159 1
    3294     3156     3157 1
    3295     3156     3162 1
    3296     3160     3161 1
    3297     3160     3168 1
    3298     3161     3162 1
    3299     3161     3169 1
    3300     3162     3163 1
    3301     3163     3164 1
    3302     3163     3167 1
    3303     3164     3165 1
    3304     3165     3166 1
    3305     3166     3167 1
    3306     3167     3168 1
    3307     3168     3272 1
    3308     3170     3171 1
    3309     3170     3186 1
    3310     3170     3187 1
    3311     3171     3172 1
    3312     3171     3178 1
    3313     3171     3188 1
    3314     3172     3173 1
    3315     3172     3189 1
    3316     3172     3190 1
    3317     3173     3174 1
    3318     3173     3191 1
    3319     3173     3192 1
    3320     3174     3175 1
    3321     3174     3193 1
    3322     3174     3194 1
    3323     3175     3176 1
    3324     3175     3195 1
    3325     3175     3196 1
    3326     3176     3177 1
    3327     3176     3197 1
    3328     3176     3198 1
    3329     3177     3199 1
    3330     3177     3200 1
    3331     3177     3201 1
    3332     3178     3179 1
    3333     3178     3202 1
    3334     3178     3203 1
    3335     3179     3180 1
    3336     3179     3204 1
    3337     3179     3205 1
    3338     3180     3181 1
    3339     3180     3206 1
    3340     3180     3207 1
    3341     3181     3182 1
    3342     3181     3208 1
    3343     3181     3209 1
    3344     3182     3183 1
    3345     3182     3210 1
    3346     3182     3211 1
    3347     3183     3184 1
    3348     3183     3212 1
    3349     3183     3213 1
    3350     3184     3185 1
    3351     3184     3214 1
    3352     3184     3215 1
    3353     3185     3216 1
    3354     3185     3217 1
    3355     3185     3218 1
    3356     3219     3220 1
    3357     3219     3235 1
    3358     3219     3236 1
    3359     3220     3221 1
    3360     3220     3227 1
    3361     3220     3237 1
    3362     3221     3222 1
    3363     3221     3238 1
    3364     3221     3239 1
    3365     3222     3223 1
    3366     3222     3240 1
    3367     3222     3241 1
    3368     3223     3224 1
    3369     3223     3242 1
    3370     3223     3243 1
    3371     3224     3225 1
    3372     3224     3244 1
    3373     3224     3245 1
    3374     3225     3226 1
    3375     3225     3246 1
    3376     3225     3247 1
    3377     3226     3248 1
    3378     3226     3249 1
    3379     3226     3250 1
    3380     3227     3228 1
    3381     3227     3251 1
    3382     3227     3252 1
    3383     3228     3229 1
    3384     3228     3253 1
    3385     3228     3254 1
    3386     3229     3230 1
    3387     3229     3255 1
    3388     3229     3256 1
    3389     3230     3231 1
    3390     3230     3257 1
    3391     3230     3258 1
    3392     3231     3232 1
    3393     3231     3259 1
    3394     3231     3260 1
    3395     3232     3233 1
    3396     3232     3261 1
    3397     3232     3262 1
    3398     3233     3234 1
    3399     3233     3263 1
    3400     3233     3264 1
    3401     3234     3265 1
    3402     3234     3266 1
    3403     3234     3267 1
    3404     3268     3269 1
    3405     3268     3275 1
    3406     3268     3291 1
    3407     3268     3340 1
    3408     3269     3270 1
    3409     3269     3273 1
    3410     3270     3271 1
    3411     3270     3274 1
    3412     3271     3272 1
    3413     3272     3273 1
    3414     3273     3279 1
    3415     3274     3275 1
    3416     3274     3278 1
    3417     3275     3276 1
    3418     3276     3277 1
    3419     3276     3280 1
    3420     3277     3278 1
    3421     3277     3283 1
    3422     3281     3282 1
    3423     3281     3289 1
    3424     3282     3283 1
    3425     3282     3290 1
    3426     3283     3284 1
    3427     3284     3285 1
    3428     3284     3288 1
    3429     3285     3286 1
    3430     3286     3287 1
    3431     3287     3288 1
    3432     3288     3289 1
    3433     3289     3393 1
    3434     3291     3292 1
    3435     3291     3307 1
    3436     3291     3308 1
    3437     3292     3293 1
    3438     3292     3299 1
    3439     3292     3309 1
    3440     3293     3294 1
    3441     3293     3310 1
    3442     3293     3311 1
    3443     3294     3295 1
    3444     3294     3312 1
    3445     3294     3313 1
    3446     3295     3296 1
    3447     3295     3314 1
    3448     3295     3315 1
    3449     3296     3297 1
    3450     3296     3316 1
    3451     3296     3317 1
    3452     3297     3298 1
    3453     3297     3318 1
    3454     3297     3319 1
    3455     3298     3320 1
    3456     3298     3321 1
    3457     3298     3322 1
    3458     3299     3300 1
    3459     3299     3323 1
    3460     3299     3324 1
    3461     3300     3301 1
    3462     3300     3325 1
    3463     3300     3326 1
    3464     3301     3302 1
    3465     3301     3327 1
    3466     3301     3328 1
    3467     3302     3303 1
    3468     3302     3329 1
    3469     3302     3330 1
    3470     3303     3304 1
    3471     3303     3331 1
    3472     3303     3332 1
    3473     3304     3305 1
    3474     3304     3333 1
    3475     3304     3334 1
    3476     3305     3306 1
    3477     3305     3335 1
    3478     3305     3336 1
    3479     3306     3337 1
    3480     3306     3338 1
    3481     3306     3339 1
    3482     3340     3341 1
    3483     3340     3356 1
    3484     3340     3357 1
    3485     3341     3342 1
    3486     3341     3348 1
    3487     3341     3358 1
    3488     3342     3343 1
    3489     3342     3359 1
    3490     3342     3360 1
    3491     3343     3344 1
    3492     3343     3361 1
    3493     3343     3362 1
    3494     3344     3345 1
    3495     3344     3363 1
    3496     3344     3364 1
    3497     3345     3346 1
    3498     3345     3365 1
    3499     3345     3366 1
    3500     3346     3347 1
    3501     3346     3367 1
    3502     3346     3368 1
    3503     3347     3369 1
    3504     3347     3370 1
    3505     3347     3371 1
    3506     3348     3349 1
    3507     3348     3372 1
    3508     3348     3373 1
    3509     3349     3350 1
    3510     3349     3374 1
    3511     3349     3375 1
    3512     3350     3351 1
    3513     3350     3376 1
    3514     3350     3377 1
    3515     3351     3352 1
    3516     3351     3378 1
    3517     3351     3379 1
    3518     3352     3353 1
    3519     3352     3380 1
    3520     3352     3381 1
    3521     3353     3354 1
    3522     3353     3382 1
    3523     3353     3383 1
    3524     3354     3355 1
    3525     3354     3384 1
    3526     3354     3385 1
    3527     3355     3386 1
    3528     3355     3387 1
    3529     3355     3388 1
    3530     3389     3390 1
    3531     3389     3396 1
    3532     3389     3412 1
    3533     3389     3461 1
    3534     3390     3391 1
    3535     3390     3394 1
    3536     3391     3392 1
    3537     3391     3395 1
    3538     3392     3393 1
    3539     3393     3394 1
    3540     3394     3400 1
    3541     3395     3396 1
    3542     3395     3399 1
    3543     3396     3397 1
    3544     3397     3398 1
    3545     3397     3401 1
    3546     3398     3399 1
    3547     3398     3404 1
    3548     3402     3403 1
    3549     3402     3410 1
    3550     3403     3404 1
    3551     3403     3411 1
    3552     3404     3405 1
    3553     3405     3406 1
    3554     3405     3409 1
    3555     3406     3407 1
    3556     3407     3408 1
    3557     3408     3409 1
    3558     3409     3410 1
    3559     3410     3514 1
    3560     3412     3413 1
    3561     3412     3428 1
    3562     3412     3429 1
    3563     3413     3414 1
    3564     3413     3420 1
    3565     3413     3430 1
    3566     3414     3415 1
    3567     3414     3431 1
    3568     3414     3432 1
    3569     3415     3416 1
    3570     3415     3433 1
    3571     3415     3434 1
    3572     3416     3417 1
    3573     3416     3435 1
    3574     3416     3436 1
    3575     3417     3418 1
    3576     3417     3437 1
    3577     3417     3438 1
    3578     3418     3419 1
    3579     3418     3439 1
    3580     3418     3440 1
    3581     3419     3441 1
    3582     3419     3442 1
    3583     3419     3443 1
    3584     3420     3421 1
    3585     3420     3444 1
    3586     3420     3445 1
    3587     3421     3422 1
    3588     3421     3446 1
    3589     3421     3447 1
    3590     3422     3423 1
    3591     3422     3448 1
    3592     3422     3449 1
    3593     3423     3424 1
    3594     3423     3450 1
    3595     3423     3451 1
    3596     3424     3425 1
    3597     3424     3452 1
    3598     3424     3453 1
    3599     3425     3426 1
    3600     3425     3454 1
    3601     3425     3455 1
    3602     3426     3427 1
    3603     3426     3456 1
    3604     3426     3457 1
    3605     3427     3458 1
    3606     3427     3459 1
    3607     3427     3460 1
    3608     3461     3462 1
    3609     3461     3477 1
    3610     3461     3478 1
    3611     3462     3463 1
    3612     3462     3469 1
    3613     3462     3479 1
    3614     3463     3464 1
    3615     3463     3480 1
    3616     3463     3481 1
    3617     3464     3465 1
    3618     3464     3482 1
    3619     3464     3483 1
    3620     3465     3466 1
    3621     3465     3484 1
    3622     3465     3485 1
    3623     3466     3467 1
    3624     3466     3486 1
    3625     3466     3487 1
    3626     3467     3468 1
    3627     3467     3488 1
    3628     3467     3489 1
    3629     3468     3490 1
    3630     3468     3491 1
    3631     3468     3492 1
    3632     3469     3470 1
    3633     3469     3493 1
    3634     3469     3494 1
    3635     3470     3471 1
    3636     3470     3495 1
    3637     3470     3496 1
    3638     3471     3472 1
    3639     3471     3497 1
    3640     3471     3498 1
    3641     3472     3473 1
    3642     3472     3499 1
    3643     3472     3500 1
    3644     3473     3474 1
    3645     3473     3501 1
    3646     3473     3502 1
    3647     3474     3475 1
    3648     3474     3503 1
    3649     3474     3504 1
    3650     3475     3476 1
    3651     3475     3505 1
    3652     3475     3506 1
    3653     3476     3507 1
    3654     3476     3508 1
    3655     3476     3509 1
    3656     3510     3511 1
    3657     3510     3517 1
    3658     3510     3533 1
    3659     3510     3582 1
    3660     3511     3512 1
    3661     3511     3515 1
    3662     3512     3513 1
    3663     3512     3516 1
    3664     3513     3514 1
    3665     3514     3515 1
    3666     3515     3521 1
    3667     3516     3517 1
    3668     3516     3520 1
    3669     3517     3518 1
    3670     3518     3519 1
    3671     3518     3522 1
    3672     3519     3520 1
    3673     3519     3525 1
    3674     3523     3524 1
    3675     3523     3531 1
    3676     3524     3525 1
    3677     3524     3532 1
    3678     3525     3526 1
    3679     3526     3527 1
    3680     3526     3530 1
    3681     3527     3528 1
    3682     3528     3529 1
    3683     3529     3530 1
    3684     3530     3531 1
    3685     3531     3632 1
    3686     3533     3534 1
    3687     3533     3549 1
    3688     3533     3550 1
    3689     3534     3535 1
    3690     3534     3541 1
    3691     3534     3551 1
    3692     3535     3536 1
    3693     3535     3552 1
    3694     3535     3553 1
    3695     3536     3537 1
    3696     3536     3554 1
    3697     3536     3555 1
    3698     3537     3538 1
    3699     3537     3556 1
    3700     3537     3557 1
    3701     3538     3539 1
    3702     3538     3558 1
    3703     3538     3559 1
    3704     3539     3540 1
    3705     3539     3560 1
    3706     3539     3561 1
    3707     3540     3562 1
    3708     3540     3563 1
    3709     3540     3564 1
    3710     3541     3542 1
    3711     3541     3565 1
    3712     3541     3566 1
    3713     3542     3543 1
    3714     3542     3567 1
    3715     3542     3568 1
    3716     3543     3544 1
    3717     3543     3569 1
    3718     3543     3570 1
    3719     3544     3545 1
    3720     3544     3571 1
    3721     3544     3572 1
    3722     3545     3546 1
    3723     3545     3573 1
    3724     3545     3574 1
    3725     3546     3547 1
    3726     3546     3575 1
    3727     3546     3576 1
    3728     3547     3548 1
    3729     3547     3577 1
    3730     3547     3578 1
    3731     3548     3579 1
    3732     3548     3580 1
    3733     3548     3581 1
    3734     3582     3583 1
    3735     3582     3598 1
    3736     3582     3599 1
    3737     3583     3584 1
    3738     3583     3590 1
    3739     3583     3600 1
    3740     3584     3585 1
    3741     3584     3601 1
    3742     3584     3602 1
    3743     3585     3586 1
    3744     3585     3603 1
    3745     3585     3604 1
    3746     3586     3587 1
    3747     3586     3605 1
    3748     3586     3606 1
    3749     3587     3588 1
    3750     3587     3607 1
    3751     3587     3608 1
    3752     3588     3589 1
    3753     3588     3609 1
    3754     3588     3610 1
    3755     3589     3611 1
    3756     3589     3612 1
    3757     3589     3613 1
    3758     3590     3591 1
    3759     3590     3614 1
    3760     3590     3615 1
    3761     3591     3592 1
    3762     3591     3616 1
    3763     3591     3617 1
    3764     3592     3593 1
    3765     3592     3618 1
    3766     3592     3619 1
    3767     3593     3594 1
    3768     3593     3620 1
    3769     3593     3621 1
    3770     3594     3595 1
    3771     3594     3622 1
    3772     3594     3623 1
    3773     3595     3596 1
    3774     3595     3624 1
    3775     3595     3625 1
    3776     3596     3597 1
    3777     3596     3626 1
    3778     3596     3627 1
    3779     3597     3628 1
    3780     3597     3629 1
    3781     3597     3630 1
@<TRIPOS>SUBSTRUCTURE
       1 RES             1 RESIDUE    0 **** ROOT      0
