@<TRIPOS>MOLECULE
RES
14502 15001 1 0 1
SMALL
NO_CHARGES
@<TRIPOS>CRYSIN
  489.7010   415.1090   378.8179    90.0000    90.0000    90.0000 1 1
@<TRIPOS>ATOM
       1 C0          10.1587     9.4980     8.7322 C0            1 RES     
       2 C1           9.1418     9.2070     9.8578 C1            1 RES     
       3 C1           9.7005     9.2883    11.0933 C1            1 RES     
       4 S2           8.6479     8.8882    12.3320 S2            1 RES     
       5 C1           7.3904     8.5422    11.2412 C1            1 RES     
       6 C1           7.8175     8.7428     9.9240 C1            1 RES     
       7 C1          11.0728     9.5882    10.9533 C1            1 RES     
       8 C1          11.3893     9.6295     9.6308 C1            1 RES     
       9 C1          12.7546     9.7786     9.4187 C1            1 RES     
      10 C1          13.4368     9.8832    10.6426 C1            1 RES     
      11 S2          12.3786     9.7762    11.9663 S2            1 RES     
      12 H3           7.1893     8.5042     9.0869 H3            1 RES     
      13 H3          13.2255     9.8047     8.4433 H3            1 RES     
      14 N4          16.8598    11.1173    11.5428 N4            1 RES     
      15 C1          15.5093    11.0917    11.3437 C1            1 RES     
      16 C1          14.8832     9.9474    10.8199 C1            1 RES     
      17 C1          15.6772     8.8357    10.5326 C1            1 RES     
      18 N4          15.1924     7.6517    10.0781 N4            1 RES     
      19 S2          16.5580     6.7249     9.9886 S2            1 RES     
      20 N4          17.7602     7.7427    10.4957 N4            1 RES     
      21 C1          17.0745     8.8807    10.7667 C1            1 RES     
      22 C1          17.6536    10.0458    11.2626 C1            1 RES     
      23 H5          14.9186    11.9709    11.5860 H5            1 RES     
      24 C0          10.0208    10.8110     7.8838 C0            1 RES     
      25 C0          10.2874    12.3126     8.2788 C0            1 RES     
      26 C0           9.8416    13.1495     7.0285 C0            1 RES     
      27 C0          10.0572    14.6664     7.0980 C0            1 RES     
      28 C0           9.5353    15.3915     5.8352 C0            1 RES     
      29 C0          10.2280    15.0130     4.5075 C0            1 RES     
      30 C0          11.7582    15.1761     4.5056 C0            1 RES     
      31 C0          12.2126    16.6070     4.8442 C0            1 RES     
      32 C0          13.7401    16.7537     4.8966 C0            1 RES     
      33 C0          14.4133    16.5720     3.5257 C0            1 RES     
      34 C0          15.9272    16.8339     3.5685 C0            1 RES     
      35 C0          16.6909    15.8160     4.4164 C0            1 RES     
      36 C0           9.6901    12.8797     9.6080 C0            1 RES     
      37 C0           8.1417    12.9799     9.7664 C0            1 RES     
      38 C0           7.7119    12.1449    10.9764 C0            1 RES     
      39 C0           6.2282    11.8258    11.1364 C0            1 RES     
      40 C0           5.3579    12.9283    11.7217 C0            1 RES     
      41 C0           3.9203    12.3798    11.8389 C0            1 RES     
      42 C0           2.9544    13.3002    12.5886 C0            1 RES     
      43 C0           3.2929    13.4082    14.0769 C0            1 RES     
      44 H6           9.0309    10.8174     7.5046 H6            1 RES     
      45 H6          10.7064    10.6515     7.0211 H6            1 RES     
      46 H6          11.3887    12.4184     8.3993 H6            1 RES     
      47 H6           8.7584    12.9810     6.8420 H6            1 RES     
      48 H6          10.3975    12.7636     6.1473 H6            1 RES     
      49 H6          11.1304    14.8917     7.2633 H6            1 RES     
      50 H6           9.4794    15.0785     7.9498 H6            1 RES     
      51 H6           9.6420    16.4842     5.9961 H6            1 RES     
      52 H6           8.4460    15.1949     5.7230 H6            1 RES     
      53 H6           9.7958    15.6459     3.7006 H6            1 RES     
      54 H6           9.9920    13.9585     4.2494 H6            1 RES     
      55 H6          12.2030    14.4656     5.2339 H6            1 RES     
      56 H6          12.1185    14.8941     3.4945 H6            1 RES     
      57 H6          11.8421    16.8704     5.8558 H6            1 RES     
      58 H6          11.7847    17.3303     4.1159 H6            1 RES     
      59 H6          13.9660    17.7801     5.2595 H6            1 RES     
      60 H6          14.1398    16.0276     5.6353 H6            1 RES     
      61 H6          14.2383    15.5505     3.1290 H6            1 RES     
      62 H6          13.9633    17.3042     2.8203 H6            1 RES     
      63 H6          16.1218    17.8595     3.9514 H6            1 RES     
      64 H6          16.3176    16.7735     2.5297 H6            1 RES     
      65 H6          16.3831    15.8637     5.4804 H6            1 RES     
      66 H6          16.5196    14.7893     4.0287 H6            1 RES     
      67 H6          17.7775    16.0378     4.3664 H6            1 RES     
      68 H6          10.0923    13.9062     9.7456 H6            1 RES     
      69 H6          10.1470    12.3278    10.4572 H6            1 RES     
      70 H6           7.8301    14.0338     9.9433 H6            1 RES     
      71 H6           7.6403    12.6215     8.8445 H6            1 RES     
      72 H6           8.1528    12.5186    11.9245 H6            1 RES     
      73 H6           8.1433    11.1868    10.7783 H6            1 RES     
      74 H6           5.8320    11.4789    10.1789 H6            1 RES     
      75 H6           6.1669    10.9694    11.8459 H6            1 RES     
      76 H6           5.7702    13.1751    12.7230 H6            1 RES     
      77 H6           5.3724    13.8383    11.0854 H6            1 RES     
      78 H6           3.5312    12.2133    10.8088 H6            1 RES     
      79 H6           3.9203    11.3956    12.3604 H6            1 RES     
      80 H6           1.9372    12.8569    12.5116 H6            1 RES     
      81 H6           2.9363    14.3055    12.1176 H6            1 RES     
      82 H6           4.2823    13.8806    14.2356 H6            1 RES     
      83 H6           2.5272    14.0273    14.5869 H6            1 RES     
      84 H6           3.2940    12.3976    14.5432 H6            1 RES     
      85 C0          10.1559     8.2015     7.8296 C0            1 RES     
      86 C0           9.6151     8.1128     6.3310 C0            1 RES     
      87 C0           9.3054     6.6016     6.0613 C0            1 RES     
      88 C0           9.0218     6.2315     4.5914 C0            1 RES     
      89 C0           8.6994     4.7422     4.3764 C0            1 RES     
      90 C0           9.8027     3.7526     4.7916 C0            1 RES     
      91 C0          11.1841     4.0150     4.1691 C0            1 RES     
      92 C0          11.1713     4.0202     2.6303 C0            1 RES     
      93 C0          12.5582     4.2888     2.0240 C0            1 RES     
      94 C0          13.5614     3.1540     2.2977 C0            1 RES     
      95 C0          14.9090     3.3602     1.5887 C0            1 RES     
      96 C0          15.6826     4.5738     2.1043 C0            1 RES     
      97 C0           8.4976     9.0475     5.7029 C0            1 RES     
      98 C0           7.0144     8.9823     6.1653 C0            1 RES     
      99 C0           6.6144    10.1954     7.0242 C0            1 RES     
     100 C0           5.2006    10.1986     7.5818 C0            1 RES     
     101 C0           4.0704    10.4627     6.5969 C0            1 RES     
     102 C0           2.7730    10.5889     7.4214 C0            1 RES     
     103 C0           1.5450    11.0095     6.6119 C0            1 RES     
     104 C0           1.6541    12.4446     6.0945 C0            1 RES     
     105 H6           9.7017     7.3731     8.4216 H6            1 RES     
     106 H6          11.2089     7.8460     7.7603 H6            1 RES     
     107 H6          10.5037     8.3830     5.7150 H6            1 RES     
     108 H6           8.4332     6.2942     6.6778 H6            1 RES     
     109 H6          10.1851     6.0104     6.3952 H6            1 RES     
     110 H6           9.8869     6.5317     3.9637 H6            1 RES     
     111 H6           8.1220     6.7641     4.2272 H6            1 RES     
     112 H6           8.4734     4.5977     3.2983 H6            1 RES     
     113 H6           7.7734     4.4840     4.9358 H6            1 RES     
     114 H6           9.4651     2.7303     4.5132 H6            1 RES     
     115 H6           9.9138     3.7702     5.8968 H6            1 RES     
     116 H6          11.5778     4.9874     4.5348 H6            1 RES     
     117 H6          11.8574     3.2158     4.5406 H6            1 RES     
     118 H6          10.5056     4.8363     2.2796 H6            1 RES     
     119 H6          10.7730     3.0567     2.2450 H6            1 RES     
     120 H6          12.4318     4.3814     0.9233 H6            1 RES     
     121 H6          12.9380     5.2573     2.4132 H6            1 RES     
     122 H6          13.7474     3.0407     3.3856 H6            1 RES     
     123 H6          13.1224     2.2060     1.9170 H6            1 RES     
     124 H6          14.7473     3.4580     0.4932 H6            1 RES     
     125 H6          15.5324     2.4576     1.7670 H6            1 RES     
     126 H6          15.1334     5.5163     1.9064 H6            1 RES     
     127 H6          15.8674     4.4761     3.1953 H6            1 RES     
     128 H6          16.6612     4.6328     1.5831 H6            1 RES     
     129 H6           8.4805     8.7793     4.6306 H6            1 RES     
     130 H6           8.8278    10.0952     5.5725 H6            1 RES     
     131 H6           6.3740     9.0640     5.2595 H6            1 RES     
     132 H6           6.7904     8.0074     6.6437 H6            1 RES     
     133 H6           6.8034    11.1408     6.4667 H6            1 RES     
     134 H6           7.2124    10.2166     7.9284 H6            1 RES     
     135 H6           5.0207     9.2674     8.1618 H6            1 RES     
     136 H6           5.1704    11.0624     8.2662 H6            1 RES     
     137 H6           4.2939    11.4157     6.0724 H6            1 RES     
     138 H6           3.9882     9.6448     5.8511 H6            1 RES     
     139 H6           2.5695     9.6038     7.8961 H6            1 RES     
     140 H6           2.9057    11.3347     8.2388 H6            1 RES     
     141 H6           0.6685    10.9675     7.2952 H6            1 RES     
     142 H6           1.3778    10.3015     5.7761 H6            1 RES     
     143 H6           2.4871    12.5527     5.3718 H6            1 RES     
     144 H6           0.7107    12.7213     5.5807 H6            1 RES     
     145 H6           1.8125    13.1482     6.9411 H6            1 RES     
     146 C0          22.9945    10.8050    10.5719 C0            1 RES     
     147 C1          21.5805    10.5370    11.1329 C1            1 RES     
     148 C1          21.6125     9.9754    12.3693 C1            1 RES     
     149 S2          20.0982     9.5871    12.9680 S2            1 RES     
     150 C1          19.3269    10.1260    11.5518 C1            1 RES     
     151 C1          20.2695    10.5983    10.6319 C1            1 RES     
     152 C1          22.9590     9.7801    12.7457 C1            1 RES     
     153 C1          23.7696    10.1571    11.7202 C1            1 RES     
     154 C1          25.1047     9.8590    11.9651 C1            1 RES     
     155 C1          25.2566     9.2763    13.2345 C1            1 RES     
     156 S2          23.7689     9.1138    14.0368 S2            1 RES     
     157 H3          19.9843    10.9117     9.6456 H3            1 RES     
     158 H3          25.9136    10.0463    11.2690 H3            1 RES     
     159 N4          28.2326     8.7770    15.4582 N4            1 RES     
     160 C1          27.0995     9.3185    14.9226 C1            1 RES     
     161 C1          26.4925     8.7405    13.7942 C1            1 RES     
     162 C1          27.0678     7.5886    13.2546 C1            1 RES     
     163 N4          26.5510     6.9006    12.2044 N4            1 RES     
     164 S2          27.5999     5.6306    12.0671 S2            1 RES     
     165 N4          28.6996     5.8941    13.2752 N4            1 RES     
     166 C1          28.2333     7.0346    13.8411 C1            1 RES     
     167 C1          28.8138     7.6575    14.9428 C1            1 RES     
     168 H5          26.6718    10.2107    15.3719 H5            1 RES     
     169 C0          23.4951    12.2831    10.4067 C0            1 RES     
     170 C0          23.9108    13.3460    11.4926 C0            1 RES     
     171 C0          24.1889    14.6646    10.6886 C0            1 RES     
     172 C0          24.6902    15.8719    11.4907 C0            1 RES     
     173 C0          24.8804    17.1261    10.6055 C0            1 RES     
     174 C0          25.9359    17.0045     9.4843 C0            1 RES     
     175 C0          27.3388    16.5854     9.9579 C0            1 RES     
     176 C0          27.9286    17.5379    11.0131 C0            1 RES     
     177 C0          29.3042    17.0869    11.5249 C0            1 RES     
     178 C0          30.4028    17.1573    10.4508 C0            1 RES     
     179 C0          31.7955    16.8142    11.0029 C0            1 RES     
     180 C0          31.9191    15.3619    11.4655 C0            1 RES     
     181 C0          22.9817    13.5951    12.7254 C0            1 RES     
     182 C0          21.5595    14.1942    12.4995 C0            1 RES     
     183 C0          20.5160    13.2120    13.0404 C0            1 RES     
     184 C0          19.0580    13.4246    12.6431 C0            1 RES     
     185 C0          18.2957    14.4934    13.4125 C0            1 RES     
     186 C0          16.8448    14.5058    12.8871 C0            1 RES     
     187 C0          15.8922    15.3955    13.6891 C0            1 RES     
     188 C0          15.6344    14.8502    15.0953 C0            1 RES     
     189 H6          22.7616    12.7824     9.8266 H6            1 RES     
     190 H6          24.4104    12.1924     9.7790 H6            1 RES     
     191 H6          24.8702    12.9923    11.9321 H6            1 RES     
     192 H6          23.2577    14.9804    10.1692 H6            1 RES     
     193 H6          24.9454    14.4323     9.9088 H6            1 RES     
     194 H6          25.6333    15.6162    12.0151 H6            1 RES     
     195 H6          23.9314    16.1451    12.2516 H6            1 RES     
     196 H6          25.1546    17.9753    11.2650 H6            1 RES     
     197 H6          23.9084    17.3942    10.1351 H6            1 RES     
     198 H6          26.0069    17.9885     8.9695 H6            1 RES     
     199 H6          25.5928    16.2692     8.7253 H6            1 RES     
     200 H6          27.2927    15.5569    10.3739 H6            1 RES     
     201 H6          27.9947    16.5594     9.0631 H6            1 RES     
     202 H6          27.2593    17.5515    11.8973 H6            1 RES     
     203 H6          27.9926    18.5713    10.6073 H6            1 RES     
     204 H6          29.5909    17.7654    12.3578 H6            1 RES     
     205 H6          29.2103    16.0579    11.9309 H6            1 RES     
     206 H6          30.1759    16.4762     9.6046 H6            1 RES     
     207 H6          30.4401    18.1986    10.0628 H6            1 RES     
     208 H6          32.0463    17.4964    11.8443 H6            1 RES     
     209 H6          32.5383    16.9781    10.1926 H6            1 RES     
     210 H6          31.2374    15.1480    12.3132 H6            1 RES     
     211 H6          31.6908    14.6718    10.6256 H6            1 RES     
     212 H6          32.9579    15.1727    11.8083 H6            1 RES     
     213 H6          23.5142    14.2870    13.4126 H6            1 RES     
     214 H6          22.9341    12.6574    13.3194 H6            1 RES     
     215 H6          21.4454    15.1576    13.0454 H6            1 RES     
     216 H6          21.3942    14.3870    11.4201 H6            1 RES     
     217 H6          20.6204    13.0455    14.1332 H6            1 RES     
     218 H6          20.7666    12.2948    12.5512 H6            1 RES     
     219 H6          19.0031    13.6011    11.5661 H6            1 RES     
     220 H6          18.5351    12.4619    12.8443 H6            1 RES     
     221 H6          18.3255    14.2094    14.4857 H6            1 RES     
     222 H6          18.7599    15.4942    13.2856 H6            1 RES     
     223 H6          16.8647    14.8607    11.8316 H6            1 RES     
     224 H6          16.4221    13.4753    12.8863 H6            1 RES     
     225 H6          14.9162    15.4118    13.1560 H6            1 RES     
     226 H6          16.2836    16.4334    13.7377 H6            1 RES     
     227 H6          16.5600    14.8409    15.7038 H6            1 RES     
     228 H6          14.8879    15.4892    15.6092 H6            1 RES     
     229 H6          15.2285    13.8156    15.0358 H6            1 RES     
     230 C0          23.0589     9.9981     9.2153 C0            1 RES     
     231 C0          23.1445    10.6378     7.7560 C0            1 RES     
     232 C0          22.6390     9.5391     6.7612 C0            1 RES     
     233 C0          22.8806     9.8315     5.2665 C0            1 RES     
     234 C0          22.3472     8.7374     4.3248 C0            1 RES     
     235 C0          22.9499     7.3348     4.5205 C0            1 RES     
     236 C0          24.4855     7.2706     4.4710 C0            1 RES     
     237 C0          25.0790     7.8118     3.1584 C0            1 RES     
     238 C0          26.6146     7.7454     3.1270 C0            1 RES     
     239 C0          27.1513     6.3029     3.1101 C0            1 RES     
     240 C0          28.6782     6.2325     2.9526 C0            1 RES     
     241 C0          29.4354     6.8192     4.1441 C0            1 RES     
     242 C0          22.6004    12.0718     7.3503 C0            1 RES     
     243 C0          21.0804    12.3990     7.3258 C0            1 RES     
     244 C0          20.6551    13.2965     8.5018 C0            1 RES     
     245 C0          19.1749    13.6244     8.6076 C0            1 RES     
     246 C0          18.6109    14.6072     7.5911 C0            1 RES     
     247 C0          17.1571    14.9064     8.0106 C0            1 RES     
     248 C0          16.4717    15.9995     7.1887 C0            1 RES     
     249 C0          17.0900    17.3782     7.4256 C0            1 RES     
     250 H6          22.2376     9.2442     9.2260 H6            1 RES     
     251 H6          23.9473     9.3292     9.2717 H6            1 RES     
     252 H6          24.2393    10.7586     7.5863 H6            1 RES     
     253 H6          21.5504     9.3799     6.9187 H6            1 RES     
     254 H6          23.1623     8.5906     7.0091 H6            1 RES     
     255 H6          23.9657     9.9909     5.0942 H6            1 RES     
     256 H6          22.3382    10.7471     4.9609 H6            1 RES     
     257 H6          22.5364     9.0681     3.2813 H6            1 RES     
     258 H6          21.2438     8.6602     4.4419 H6            1 RES     
     259 H6          22.5313     6.6716     3.7321 H6            1 RES     
     260 H6          22.6194     6.9271     5.4996 H6            1 RES     
     261 H6          24.9089     7.8399     5.3259 H6            1 RES     
     262 H6          24.7638     6.2051     4.6027 H6            1 RES     
     263 H6          24.8032     8.8820     3.0541 H6            1 RES     
     264 H6          24.6612     7.2586     2.2896 H6            1 RES     
     265 H6          26.9541     8.2523     2.1976 H6            1 RES     
     266 H6          27.0155     8.3083     3.9966 H6            1 RES     
     267 H6          26.8654     5.7608     4.0349 H6            1 RES     
     268 H6          26.6988     5.7765     2.2415 H6            1 RES     
     269 H6          28.9854     6.7550     2.0207 H6            1 RES     
     270 H6          28.9648     5.1627     2.8598 H6            1 RES     
     271 H6          29.2316     7.9030     4.2577 H6            1 RES     
     272 H6          29.1507     6.2898     5.0783 H6            1 RES     
     273 H6          30.5266     6.6918     3.9833 H6            1 RES     
     274 H6          22.9464    12.2171     6.3105 H6            1 RES     
     275 H6          23.1784    12.9010     7.7998 H6            1 RES     
     276 H6          20.8822    13.0174     6.4227 H6            1 RES     
     277 H6          20.4767    11.4735     7.2338 H6            1 RES     
     278 H6          21.2520    14.2367     8.5039 H6            1 RES     
     279 H6          20.8388    12.7831     9.4390 H6            1 RES     
     280 H6          18.5804    12.6854     8.6335 H6            1 RES     
     281 H6          19.0707    14.1450     9.5738 H6            1 RES     
     282 H6          19.2273    15.5299     7.6338 H6            1 RES     
     283 H6          18.6489    14.1886     6.5638 H6            1 RES     
     284 H6          16.5709    13.9659     7.9161 H6            1 RES     
     285 H6          17.1201    15.2194     9.0795 H6            1 RES     
     286 H6          15.4118    16.0481     7.5222 H6            1 RES     
     287 H6          16.4935    15.7382     6.1122 H6            1 RES     
     288 H6          18.1412    17.4162     7.0771 H6            1 RES     
     289 H6          16.5107    18.1405     6.8654 H6            1 RES     
     290 H6          17.0551    17.6352     8.5071 H6            1 RES     
     291 C0          34.0209     6.5955    16.0988 C0            1 RES     
     292 C1          32.4792     6.6880    16.0847 C1            1 RES     
     293 C1          31.8982     5.7636    16.8929 C1            1 RES     
     294 S2          30.2253     5.7760    16.8302 S2            1 RES     
     295 C1          30.2119     7.0138    15.6646 C1            1 RES     
     296 C1          31.5189     7.3945    15.3415 C1            1 RES     
     297 C1          32.9092     4.9715    17.4786 C1            1 RES     
     298 C1          34.1188     5.3548    16.9877 C1            1 RES     
     299 C1          35.1486     4.5235    17.4119 C1            1 RES     
     300 C1          34.6570     3.5255    18.2701 C1            1 RES     
     301 S2          32.9781     3.6529    18.4901 S2            1 RES     
     302 H3          31.7208     8.1108    14.5678 H3            1 RES     
     303 H3          36.1853     4.6296    17.1155 H3            1 RES     
     304 N4          36.3306     1.2351    20.7203 N4            1 RES     
     305 C1          35.6491     2.3032    20.2115 C1            1 RES     
     306 C1          35.4220     2.4164    18.8290 C1            1 RES     
     307 C1          35.8920     1.3972    17.9989 C1            1 RES     
     308 N4          35.6904     1.3552    16.6569 N4            1 RES     
     309 S2          36.3992    -0.0786    16.2405 S2            1 RES     
     310 N4          36.9654    -0.6716    17.6779 N4            1 RES     
     311 C1          36.5797     0.2888    18.5539 C1            1 RES     
     312 C1          36.8036     0.2333    19.9271 C1            1 RES     
     313 H5          35.2887     3.0752    20.8859 H5            1 RES     
     314 C0          34.8602     7.7460    16.7580 C0            1 RES     
     315 C0          35.0407     8.1365    18.2736 C0            1 RES     
     316 C0          35.8965     9.4516    18.2577 C0            1 RES     
     317 C0          36.2968    10.0336    19.6191 C0            1 RES     
     318 C0          37.0919    11.3535    19.4819 C0            1 RES     
     319 C0          38.4471    11.2493    18.7482 C0            1 RES     
     320 C0          39.4208    10.2096    19.3303 C0            1 RES     
     321 C0          39.7444    10.4515    20.8154 C0            1 RES     
     322 C0          40.6717     9.3810    21.4084 C0            1 RES     
     323 C0          42.0895     9.4107    20.8130 C0            1 RES     
     324 C0          43.0401     8.4131    21.4938 C0            1 RES     
     325 C0          42.6472     6.9534    21.2634 C0            1 RES     
     326 C0          33.7827     8.2658    19.1933 C0            1 RES     
     327 C0          32.7344     9.3825    18.8987 C0            1 RES     
     328 C0          31.3731     8.7293    18.6415 C0            1 RES     
     329 C0          30.2745     9.5844    18.0166 C0            1 RES     
     330 C0          29.5288    10.5210    18.9559 C0            1 RES     
     331 C0          28.4425    11.2449    18.1330 C0            1 RES     
     332 C0          27.4746    12.0852    18.9692 C0            1 RES     
     333 C0          26.5718    11.2224    19.8534 C0            1 RES     
     334 H6          34.5436     8.6466    16.2971 H6            1 RES     
     335 H6          35.9034     7.5494    16.4221 H6            1 RES     
     336 H6          35.6463     7.3275    18.7398 H6            1 RES     
     337 H6          35.3390    10.2451    17.7136 H6            1 RES     
     338 H6          36.8264     9.2434    17.6864 H6            1 RES     
     339 H6          36.8764     9.2859    20.1978 H6            1 RES     
     340 H6          35.3815    10.2845    20.1922 H6            1 RES     
     341 H6          37.2660    11.7586    20.5002 H6            1 RES     
     342 H6          36.4681    12.1037    18.9473 H6            1 RES     
     343 H6          38.9305    12.2514    18.7732 H6            1 RES     
     344 H6          38.2758    11.0023    17.6786 H6            1 RES     
     345 H6          38.9886     9.1941    19.2075 H6            1 RES     
     346 H6          40.3517    10.2562    18.7279 H6            1 RES     
     347 H6          38.8029    10.4027    21.3995 H6            1 RES     
     348 H6          40.1897    11.4611    20.9538 H6            1 RES     
     349 H6          40.7511     9.5740    22.5005 H6            1 RES     
     350 H6          40.2005     8.3861    21.2643 H6            1 RES     
     351 H6          42.0680     9.1980    19.7241 H6            1 RES     
     352 H6          42.5057    10.4307    20.9632 H6            1 RES     
     353 H6          43.0849     8.6197    22.5854 H6            1 RES     
     354 H6          44.0574     8.5628    21.0721 H6            1 RES     
     355 H6          41.6586     6.7252    21.7103 H6            1 RES     
     356 H6          42.6200     6.7312    20.1754 H6            1 RES     
     357 H6          43.3981     6.2908    21.7425 H6            1 RES     
     358 H6          34.1417     8.4307    20.2317 H6            1 RES     
     359 H6          33.2994     7.2678    19.2628 H6            1 RES     
     360 H6          32.6319    10.0678    19.7698 H6            1 RES     
     361 H6          33.0532     9.9828    18.0225 H6            1 RES     
     362 H6          31.0006     8.1693    19.5250 H6            1 RES     
     363 H6          31.5855     8.0143    17.8754 H6            1 RES     
     364 H6          30.6872    10.1294    17.1641 H6            1 RES     
     365 H6          29.5155     8.8748    17.6154 H6            1 RES     
     366 H6          29.0714     9.8936    19.7500 H6            1 RES     
     367 H6          30.2148    11.2593    19.4223 H6            1 RES     
     368 H6          28.9530    11.9091    17.3992 H6            1 RES     
     369 H6          27.8371    10.5098    17.5552 H6            1 RES     
     370 H6          26.8160    12.6412    18.2662 H6            1 RES     
     371 H6          28.0349    12.8216    19.5829 H6            1 RES     
     372 H6          27.1573    10.6648    20.6108 H6            1 RES     
     373 H6          25.8453    11.8702    20.3847 H6            1 RES     
     374 H6          26.0036    10.4979    19.2282 H6            1 RES     
     375 C0          34.4320     6.3439    14.5944 C0            1 RES     
     376 C0          35.2227     7.3697    13.6623 C0            1 RES     
     377 C0          34.9184     6.9497    12.1847 C0            1 RES     
     378 C0          35.7853     7.6306    11.1064 C0            1 RES     
     379 C0          35.4362     7.2065     9.6689 C0            1 RES     
     380 C0          35.5868     5.7064     9.3592 C0            1 RES     
     381 C0          36.9628     5.1054     9.6909 C0            1 RES     
     382 C0          38.1276     5.8094     8.9727 C0            1 RES     
     383 C0          39.4960     5.2003     9.3187 C0            1 RES     
     384 C0          39.6623     3.7634     8.7925 C0            1 RES     
     385 C0          41.0716     3.1976     9.0270 C0            1 RES     
     386 C0          41.4100     3.0151    10.5066 C0            1 RES     
     387 C0          35.2139     8.9481    13.8226 C0            1 RES     
     388 C0          33.9391     9.7960    13.5510 C0            1 RES     
     389 C0          33.2968    10.3206    14.8478 C0            1 RES     
     390 C0          32.0065    11.1095    14.6980 C0            1 RES     
     391 C0          32.1196    12.5166    14.1282 C0            1 RES     
     392 C0          30.7235    13.1626    14.2398 C0            1 RES     
     393 C0          30.6762    14.6422    13.8540 C0            1 RES     
     394 C0          31.4408    15.5247    14.8418 C0            1 RES     
     395 H6          33.5276     5.9899    14.0469 H6            1 RES     
     396 H6          35.0548     5.4211    14.5729 H6            1 RES     
     397 H6          36.2934     7.1317    13.8596 H6            1 RES     
     398 H6          33.8494     7.1566    11.9614 H6            1 RES     
     399 H6          35.0782     5.8530    12.1042 H6            1 RES     
     400 H6          36.8569     7.4304    11.3164 H6            1 RES     
     401 H6          35.6239     8.7259    11.1179 H6            1 RES     
     402 H6          36.0879     7.7837     8.9787 H6            1 RES     
     403 H6          34.3882     7.5035     9.4443 H6            1 RES     
     404 H6          35.3755     5.5594     8.2774 H6            1 RES     
     405 H6          34.8172     5.1368     9.9226 H6            1 RES     
     406 H6          37.1315     5.1465    10.7882 H6            1 RES     
     407 H6          36.9235     4.0375     9.3941 H6            1 RES     
     408 H6          38.1594     6.8710     9.2955 H6            1 RES     
     409 H6          37.9729     5.7850     7.8723 H6            1 RES     
     410 H6          40.2762     5.8351     8.8449 H6            1 RES     
     411 H6          39.6375     5.2391    10.4197 H6            1 RES     
     412 H6          38.9240     3.0801     9.2604 H6            1 RES     
     413 H6          39.4824     3.7748     7.6953 H6            1 RES     
     414 H6          41.8272     3.8587     8.5496 H6            1 RES     
     415 H6          41.1268     2.2006     8.5391 H6            1 RES     
     416 H6          41.4236     3.9867    11.0403 H6            1 RES     
     417 H6          40.6720     2.3391    10.9887 H6            1 RES     
     418 H6          42.4190     2.5609    10.5982 H6            1 RES     
     419 H6          35.9630     9.3063    13.0929 H6            1 RES     
     420 H6          35.7373     9.2972    14.7325 H6            1 RES     
     421 H6          34.2535    10.7151    13.0090 H6            1 RES     
     422 H6          33.2312     9.2495    12.8954 H6            1 RES     
     423 H6          34.0372    10.9133    15.4316 H6            1 RES     
     424 H6          32.9794     9.4857    15.4625 H6            1 RES     
     425 H6          31.2576    10.5072    14.1392 H6            1 RES     
     426 H6          31.6498    11.2633    15.7298 H6            1 RES     
     427 H6          32.8576    13.0730    14.7438 H6            1 RES     
     428 H6          32.4639    12.4962    13.0733 H6            1 RES     
     429 H6          30.0289    12.5976    13.5799 H6            1 RES     
     430 H6          30.3404    13.0770    15.2828 H6            1 RES     
     431 H6          29.6100    14.9572    13.8821 H6            1 RES     
     432 H6          31.0602    14.7807    12.8239 H6            1 RES     
     433 H6          32.5244    15.2930    14.8377 H6            1 RES     
     434 H6          31.3123    16.5891    14.5572 H6            1 RES     
     435 H6          31.0422    15.3856    15.8708 H6            1 RES     
     436 C0          40.7633    -2.9915    21.7979 C0            1 RES     
     437 C1          39.4129    -2.3419    21.4233 C1            1 RES     
     438 C1          38.3723    -3.2070    21.5415 C1            1 RES     
     439 S2          36.9063    -2.5618    21.0548 S2            1 RES     
     440 C1          37.6259    -1.0846    20.6178 C1            1 RES     
     441 C1          39.0039    -1.1228    20.8575 C1            1 RES     
     442 C1          38.8696    -4.4642    21.9476 C1            1 RES     
     443 C1          40.2270    -4.4065    22.0200 C1            1 RES     
     444 C1          40.7957    -5.6485    22.2756 C1            1 RES     
     445 C1          39.7989    -6.6273    22.4266 C1            1 RES     
     446 S2          38.2420    -5.9782    22.2313 S2            1 RES     
     447 H3          39.6463    -0.3105    20.5751 H3            1 RES     
     448 H3          41.8609    -5.8342    22.3430 H3            1 RES     
     449 N4          39.8242   -10.0661    23.9179 N4            1 RES     
     450 C1          39.6521    -8.7179    23.7887 C1            1 RES     
     451 C1          40.0169    -8.0589    22.6019 C1            1 RES     
     452 C1          40.5364    -8.8246    21.5566 C1            1 RES     
     453 N4          40.8736    -8.3228    20.3408 N4            1 RES     
     454 S2          41.3522    -9.6772    19.5232 S2            1 RES     
     455 N4          41.1622   -10.8939    20.6286 N4            1 RES     
     456 C1          40.6869   -10.2258    21.7086 C1            1 RES     
     457 C1          40.3357   -10.8306    22.9126 C1            1 RES     
     458 H5          39.2368    -8.1522    24.6182 H5            1 RES     
     459 C0          41.5088    -2.5330    23.1005 C0            1 RES     
     460 C0          41.1617    -2.7859    24.6163 C0            1 RES     
     461 C0          42.2233    -1.9578    25.4223 C0            1 RES     
     462 C0          42.1755    -2.0724    26.9510 C0            1 RES     
     463 C0          43.2314    -1.1762    27.6398 C0            1 RES     
     464 C0          44.7061    -1.5089    27.3228 C0            1 RES     
     465 C0          45.1166    -2.9651    27.6041 C0            1 RES     
     466 C0          44.8764    -3.3881    29.0642 C0            1 RES     
     467 C0          45.2343    -4.8576    29.3286 C0            1 RES     
     468 C0          46.7402    -5.1456    29.2065 C0            1 RES     
     469 C0          47.1007    -6.5910    29.5848 C0            1 RES     
     470 C0          46.5169    -7.6283    28.6250 C0            1 RES     
     471 C0          39.7065    -2.5313    25.1287 C0            1 RES     
     472 C0          39.1336    -1.0807    25.1077 C0            1 RES     
     473 C0          37.8745    -1.0573    24.2359 C0            1 RES     
     474 C0          37.3284     0.2999    23.8019 C0            1 RES     
     475 C0          36.5017     1.0574    24.8306 C0            1 RES     
     476 C0          36.0152     2.3652    24.1717 C0            1 RES     
     477 C0          35.0092     3.1566    25.0107 C0            1 RES     
     478 C0          33.6651     2.4363    25.1372 C0            1 RES     
     479 H6          41.6065    -1.4797    23.0320 H6            1 RES     
     480 H6          42.5283    -2.9689    22.9990 H6            1 RES     
     481 H6          41.3402    -3.8678    24.8066 H6            1 RES     
     482 H6          42.1149    -0.8800    25.1713 H6            1 RES     
     483 H6          43.2315    -2.2809    25.0851 H6            1 RES     
     484 H6          42.3001    -3.1308    27.2580 H6            1 RES     
     485 H6          41.1890    -1.7185    27.3128 H6            1 RES     
     486 H6          43.0771    -1.2421    28.7367 H6            1 RES     
     487 H6          43.0506    -0.1147    27.3599 H6            1 RES     
     488 H6          45.3499    -0.8290    27.9243 H6            1 RES     
     489 H6          44.9181    -1.2897    26.2545 H6            1 RES     
     490 H6          44.5539    -3.6415    26.9266 H6            1 RES     
     491 H6          46.1944    -3.0576    27.3559 H6            1 RES     
     492 H6          43.7959    -3.2874    29.2930 H6            1 RES     
     493 H6          45.4433    -2.7270    29.7558 H6            1 RES     
     494 H6          44.9194    -5.0976    30.3676 H6            1 RES     
     495 H6          44.6498    -5.4947    28.6320 H6            1 RES     
     496 H6          47.1012    -4.9449    28.1765 H6            1 RES     
     497 H6          47.2789    -4.4688    29.9052 H6            1 RES     
     498 H6          46.7582    -6.8064    30.6205 H6            1 RES     
     499 H6          48.2075    -6.6886    29.5601 H6            1 RES     
     500 H6          45.4085    -7.6178    28.6433 H6            1 RES     
     501 H6          46.8704    -7.4341    27.5900 H6            1 RES     
     502 H6          46.8525    -8.6414    28.9306 H6            1 RES     
     503 H6          39.6561    -2.8794    26.1826 H6            1 RES     
     504 H6          39.0266    -3.2404    24.6097 H6            1 RES     
     505 H6          38.8521    -0.7524    26.1334 H6            1 RES     
     506 H6          39.8950    -0.3759    24.7162 H6            1 RES     
     507 H6          37.0712    -1.7101    24.6379 H6            1 RES     
     508 H6          38.2064    -1.4879    23.3151 H6            1 RES     
     509 H6          38.1521     0.9143    23.4301 H6            1 RES     
     510 H6          36.6511     0.1037    22.9398 H6            1 RES     
     511 H6          35.6428     0.4084    25.1037 H6            1 RES     
     512 H6          37.0946     1.2826    25.7422 H6            1 RES     
     513 H6          36.9060     3.0057    23.9807 H6            1 RES     
     514 H6          35.5386     2.1518    23.1879 H6            1 RES     
     515 H6          34.8203     4.1212    24.4903 H6            1 RES     
     516 H6          35.4317     3.3753    26.0139 H6            1 RES     
     517 H6          33.7671     1.4783    25.6841 H6            1 RES     
     518 H6          32.9516     3.0783    25.6925 H6            1 RES     
     519 H6          33.2427     2.2348    24.1274 H6            1 RES     
     520 C0          41.6648    -2.8392    20.5097 C0            1 RES     
     521 C0          42.9637    -1.9206    20.3868 C0            1 RES     
     522 C0          43.1787    -1.6610    18.8575 C0            1 RES     
     523 C0          44.5266    -1.0176    18.4739 C0            1 RES     
     524 C0          44.6850    -0.7590    16.9652 C0            1 RES     
     525 C0          44.6086    -2.0030    16.0620 C0            1 RES     
     526 C0          45.5738    -3.1409    16.4339 C0            1 RES     
     527 C0          47.0514    -2.7112    16.4458 C0            1 RES     
     528 C0          48.0023    -3.8583    16.8241 C0            1 RES     
     529 C0          48.0388    -4.9785    15.7692 C0            1 RES     
     530 C0          49.0795    -6.0647    16.0828 C0            1 RES     
     531 C0          48.7606    -6.8579    17.3501 C0            1 RES     
     532 C0          43.2426    -0.6093    21.2352 C0            1 RES     
     533 C0          42.3990     0.6842    21.0528 C0            1 RES     
     534 C0          41.4330     0.9242    22.2270 C0            1 RES     
     535 C0          40.5147     2.1303    22.1177 C0            1 RES     
     536 C0          41.1509     3.5013    22.2983 C0            1 RES     
     537 C0          40.0040     4.5323    22.3194 C0            1 RES     
     538 C0          40.4410     5.9612    22.6476 C0            1 RES     
     539 C0          40.9314     6.1018    24.0894 C0            1 RES     
     540 H6          40.9938    -2.6245    19.6456 H6            1 RES     
     541 H6          42.0248    -3.8572    20.2372 H6            1 RES     
     542 H6          43.7894    -2.5867    20.7282 H6            1 RES     
     543 H6          42.3579    -1.0135    18.4803 H6            1 RES     
     544 H6          43.1099    -2.6391    18.3346 H6            1 RES     
     545 H6          45.3565    -1.6557    18.8434 H6            1 RES     
     546 H6          44.6206    -0.0162    18.9369 H6            1 RES     
     547 H6          45.6655    -0.2605    16.8090 H6            1 RES     
     548 H6          43.9034    -0.0408    16.6331 H6            1 RES     
     549 H6          44.8119    -1.6784    15.0180 H6            1 RES     
     550 H6          43.5743    -2.4078    16.0827 H6            1 RES     
     551 H6          45.3029    -3.5466    17.4320 H6            1 RES     
     552 H6          45.4185    -3.9464    15.6874 H6            1 RES     
     553 H6          47.1883    -1.9174    17.2095 H6            1 RES     
     554 H6          47.3397    -2.2951    15.4562 H6            1 RES     
     555 H6          49.0253    -3.4319    16.9122 H6            1 RES     
     556 H6          47.7051    -4.2573    17.8172 H6            1 RES     
     557 H6          47.0447    -5.4602    15.6652 H6            1 RES     
     558 H6          48.3113    -4.5235    14.7919 H6            1 RES     
     559 H6          50.0879    -5.6054    16.1733 H6            1 RES     
     560 H6          49.0994    -6.7775    15.2304 H6            1 RES     
     561 H6          48.7786    -6.2081    18.2482 H6            1 RES     
     562 H6          47.7629    -7.3381    17.2616 H6            1 RES     
     563 H6          49.5249    -7.6516    17.4875 H6            1 RES     
     564 H6          44.2771    -0.3219    20.9718 H6            1 RES     
     565 H6          43.4301    -0.8141    22.3060 H6            1 RES     
     566 H6          43.0960     1.5503    21.0892 H6            1 RES     
     567 H6          41.9032     0.6981    20.0611 H6            1 RES     
     568 H6          41.9962     0.9632    23.1869 H6            1 RES     
     569 H6          40.7234     0.1068    22.2899 H6            1 RES     
     570 H6          39.9319     2.0775    21.1725 H6            1 RES     
     571 H6          39.8255     2.0371    22.9731 H6            1 RES     
     572 H6          41.6915     3.4988    23.2684 H6            1 RES     
     573 H6          41.8678     3.7224    21.4802 H6            1 RES     
     574 H6          39.5176     4.5268    21.3191 H6            1 RES     
     575 H6          39.2337     4.2381    23.0691 H6            1 RES     
     576 H6          39.5478     6.6141    22.5343 H6            1 RES     
     577 H6          41.2187     6.2962    21.9329 H6            1 RES     
     578 H6          41.8490     5.5061    24.2654 H6            1 RES     
     579 H6          41.1643     7.1668    24.2947 H6            1 RES     
     580 H6          40.1411     5.7719    24.7989 H6            1 RES     
     581 C0          42.4220   -15.7139    24.0871 C0            1 RES     
     582 C1          41.5075   -14.5285    23.7075 C1            1 RES     
     583 C1          40.3405   -14.9354    23.1438 C1            1 RES     
     584 S2          39.3657   -13.6726    22.6363 S2            1 RES     
     585 C1          40.5068   -12.5091    23.1209 C1            1 RES     
     586 C1          41.6344   -13.1299    23.6694 C1            1 RES     
     587 C1          40.3465   -16.3440    23.0517 C1            1 RES     
     588 C1          41.5426   -16.8165    23.4955 C1            1 RES     
     589 C1          41.6749   -18.1861    23.3006 C1            1 RES     
     590 C1          40.5090   -18.7187    22.7251 C1            1 RES     
     591 S2          39.3395   -17.5201    22.4438 S2            1 RES     
     592 H3          42.4987   -12.5659    23.9647 H3            1 RES     
     593 H3          42.5583   -18.7601    23.5536 H3            1 RES     
     594 N4          39.1845   -22.2142    22.4470 N4            1 RES     
     595 C1          39.3803   -20.9418    22.9017 C1            1 RES     
     596 C1          40.3176   -20.0958    22.2840 C1            1 RES     
     597 C1          41.0219   -20.5861    21.1829 C1            1 RES     
     598 N4          41.9111   -19.8559    20.4621 N4            1 RES     
     599 S2          42.3591   -20.9185    19.2780 S2            1 RES     
     600 N4          41.4862   -22.2821    19.6199 N4            1 RES     
     601 C1          40.7862   -21.9043    20.7180 C1            1 RES     
     602 C1          39.8662   -22.7144    21.3785 C1            1 RES     
     603 H5          38.8094   -20.5877    23.7557 H5            1 RES     
     604 C0          42.6781   -16.0413    25.6004 C0            1 RES     
     605 C0          41.7175   -16.6567    26.6869 C0            1 RES     
     606 C0          42.5324   -16.6090    28.0271 C0            1 RES     
     607 C0          41.8644   -17.2190    29.2656 C0            1 RES     
     608 C0          42.7354   -17.0697    30.5352 C0            1 RES     
     609 C0          44.1026   -17.7879    30.5014 C0            1 RES     
     610 C0          44.0360   -19.2934    30.1900 C0            1 RES     
     611 C0          43.1549   -20.0757    31.1801 C0            1 RES     
     612 C0          43.0451   -21.5677    30.8346 C0            1 RES     
     613 C0          44.3736   -22.3259    30.9953 C0            1 RES     
     614 C0          44.2268   -23.8374    30.7584 C0            1 RES     
     615 C0          43.8524   -24.1878    29.3178 C0            1 RES     
     616 C0          40.2737   -16.0808    26.8571 C0            1 RES     
     617 C0          40.0919   -14.6106    27.3451 C0            1 RES     
     618 C0          39.3151   -13.8276    26.2823 C0            1 RES     
     619 C0          39.2986   -12.3050    26.3832 C0            1 RES     
     620 C0          38.3248   -11.7035    27.3858 C0            1 RES     
     621 C0          38.4387   -10.1677    27.2882 C0            1 RES     
     622 C0          37.3868    -9.4056    28.0974 C0            1 RES     
     623 C0          35.9777    -9.5792    27.5267 C0            1 RES     
     624 H6          43.0256   -15.1435    26.0442 H6            1 RES     
     625 H6          43.5315   -16.7563    25.5841 H6            1 RES     
     626 H6          41.5624   -17.7224    26.4064 H6            1 RES     
     627 H6          42.7729   -15.5514    28.2723 H6            1 RES     
     628 H6          43.4931   -17.1408    27.8580 H6            1 RES     
     629 H6          41.6208   -18.2850    29.0812 H6            1 RES     
     630 H6          40.9202   -16.6770    29.4753 H6            1 RES     
     631 H6          42.1527   -17.4494    31.3998 H6            1 RES     
     632 H6          42.9190   -15.9897    30.7294 H6            1 RES     
     633 H6          44.5919   -17.6444    31.4905 H6            1 RES     
     634 H6          44.7596   -17.3068    29.7455 H6            1 RES     
     635 H6          43.6497   -19.4373    29.1589 H6            1 RES     
     636 H6          45.0751   -19.6823    30.2194 H6            1 RES     
     637 H6          42.1229   -19.6719    31.1372 H6            1 RES     
     638 H6          43.5361   -19.9514    32.2174 H6            1 RES     
     639 H6          42.3032   -22.0188    31.5290 H6            1 RES     
     640 H6          42.6556   -21.6630    29.7993 H6            1 RES     
     641 H6          45.1445   -21.9287    30.3029 H6            1 RES     
     642 H6          44.7303   -22.1802    32.0383 H6            1 RES     
     643 H6          43.4669   -24.2560    31.4538 H6            1 RES     
     644 H6          45.2029   -24.3186    30.9835 H6            1 RES     
     645 H6          42.8580   -23.7789    29.0474 H6            1 RES     
     646 H6          44.6171   -23.7916    28.6163 H6            1 RES     
     647 H6          43.8076   -25.2915    29.2080 H6            1 RES     
     648 H6          39.7380   -16.7274    27.5846 H6            1 RES     
     649 H6          39.7133   -16.2648    25.9155 H6            1 RES     
     650 H6          39.5108   -14.5784    28.2941 H6            1 RES     
     651 H6          41.0814   -14.1453    27.5300 H6            1 RES     
     652 H6          38.2957   -14.2362    26.1189 H6            1 RES     
     653 H6          39.8773   -14.0028    25.3897 H6            1 RES     
     654 H6          40.3159   -11.9476    26.5603 H6            1 RES     
     655 H6          38.9887   -11.9283    25.3819 H6            1 RES     
     656 H6          37.3071   -12.0439    27.0996 H6            1 RES     
     657 H6          38.5463   -12.0414    28.4202 H6            1 RES     
     658 H6          39.4508    -9.8748    27.6489 H6            1 RES     
     659 H6          38.3520    -9.8373    26.2281 H6            1 RES     
     660 H6          37.6361    -8.3231    28.0407 H6            1 RES     
     661 H6          37.4188    -9.7184    29.1623 H6            1 RES     
     662 H6          35.6419   -10.6332    27.5862 H6            1 RES     
     663 H6          35.2651    -8.9551    28.1033 H6            1 RES     
     664 H6          35.9521    -9.2493    26.4640 H6            1 RES     
     665 C0          43.7661   -15.4672    23.2945 C0            1 RES     
     666 C0          45.1774   -15.1069    23.9461 C0            1 RES     
     667 C0          46.0269   -14.4327    22.8165 C0            1 RES     
     668 C0          47.5233   -14.2381    23.1342 C0            1 RES     
     669 C0          48.3140   -13.5511    22.0068 C0            1 RES     
     670 C0          48.3245   -14.2855    20.6542 C0            1 RES     
     671 C0          48.7881   -15.7506    20.7095 C0            1 RES     
     672 C0          50.1978   -15.9248    21.3017 C0            1 RES     
     673 C0          50.6440   -17.3950    21.3547 C0            1 RES     
     674 C0          50.8424   -18.0113    19.9583 C0            1 RES     
     675 C0          51.4078   -19.4393    20.0073 C0            1 RES     
     676 C0          50.4501   -20.4459    20.6449 C0            1 RES     
     677 C0          45.3840   -14.3697    25.3356 C0            1 RES     
     678 C0          44.9890   -12.8802    25.5441 C0            1 RES     
     679 C0          43.7191   -12.7249    26.4000 C0            1 RES     
     680 C0          43.2094   -11.3089    26.6117 C0            1 RES     
     681 C0          44.0103   -10.4201    27.5528 C0            1 RES     
     682 C0          43.2066    -9.1165    27.7363 C0            1 RES     
     683 C0          43.7845    -8.1558    28.7771 C0            1 RES     
     684 C0          43.6877    -8.7125    30.1983 C0            1 RES     
     685 H6          43.5537   -14.7370    22.4791 H6            1 RES     
     686 H6          43.9688   -16.3842    22.6962 H6            1 RES     
     687 H6          45.6330   -16.1029    24.1524 H6            1 RES     
     688 H6          45.5856   -13.4422    22.5726 H6            1 RES     
     689 H6          45.9540   -15.0717    21.9103 H6            1 RES     
     690 H6          47.9778   -15.2212    23.3782 H6            1 RES     
     691 H6          47.6474   -13.5676    24.0066 H6            1 RES     
     692 H6          49.3610   -13.4257    22.3565 H6            1 RES     
     693 H6          47.9056   -12.5295    21.8437 H6            1 RES     
     694 H6          48.9876   -13.7186    19.9645 H6            1 RES     
     695 H6          47.3034   -14.2634    20.2173 H6            1 RES     
     696 H6          48.0648   -16.3469    21.3057 H6            1 RES     
     697 H6          48.7639   -16.1314    19.6682 H6            1 RES     
     698 H6          50.1961   -15.5534    22.3478 H6            1 RES     
     699 H6          50.9356   -15.3289    20.7222 H6            1 RES     
     700 H6          51.6172   -17.4318    21.8910 H6            1 RES     
     701 H6          49.9007   -17.9742    21.9427 H6            1 RES     
     702 H6          49.8891   -18.0272    19.3910 H6            1 RES     
     703 H6          51.5699   -17.3801    19.4027 H6            1 RES     
     704 H6          52.3742   -19.4432    20.5567 H6            1 RES     
     705 H6          51.6021   -19.7676    18.9635 H6            1 RES     
     706 H6          50.2577   -20.2016    21.7091 H6            1 RES     
     707 H6          49.4877   -20.4646    20.0905 H6            1 RES     
     708 H6          50.9026   -21.4590    20.6034 H6            1 RES     
     709 H6          46.4745   -14.4094    25.5126 H6            1 RES     
     710 H6          45.0859   -14.9856    26.2049 H6            1 RES     
     711 H6          45.7889   -12.4000    26.1498 H6            1 RES     
     712 H6          44.9386   -12.3437    24.5750 H6            1 RES     
     713 H6          43.8539   -13.2295    27.3837 H6            1 RES     
     714 H6          42.8799   -13.1929    25.8977 H6            1 RES     
     715 H6          43.0484   -10.8141    25.6292 H6            1 RES     
     716 H6          42.2378   -11.4327    27.1178 H6            1 RES     
     717 H6          44.1117   -10.9557    28.5203 H6            1 RES     
     718 H6          45.0202   -10.2089    27.1436 H6            1 RES     
     719 H6          43.1636    -8.5972    26.7536 H6            1 RES     
     720 H6          42.1596    -9.3477    28.0401 H6            1 RES     
     721 H6          43.1763    -7.2253    28.7416 H6            1 RES     
     722 H6          44.8334    -7.9041    28.5236 H6            1 RES     
     723 H6          44.3059    -9.6241    30.3195 H6            1 RES     
     724 H6          44.0510    -7.9488    30.9162 H6            1 RES     
     725 H6          42.6307    -8.9532    30.4465 H6            1 RES     
     726 C0          40.1860   -28.1032    20.7177 C0            1 RES     
     727 C1          39.7811   -26.6129    20.6904 C1            1 RES     
     728 C1          38.8703   -26.3420    19.7197 C1            1 RES     
     729 S2          38.4790   -24.7186    19.6027 S2            1 RES     
     730 C1          39.5653   -24.2991    20.8415 C1            1 RES     
     731 C1          40.2192   -25.4381    21.3240 C1            1 RES     
     732 C1          38.5998   -27.5292    19.0055 C1            1 RES     
     733 C1          39.3888   -28.5290    19.4838 C1            1 RES     
     734 C1          39.2798   -29.6932    18.7328 C1            1 RES     
     735 C1          38.3468   -29.5271    17.6954 C1            1 RES     
     736 S2          37.6788   -27.9660    17.6911 S2            1 RES     
     737 H3          40.9999   -25.3696    22.0577 H3            1 RES     
     738 H3          39.8420   -30.6001    18.9205 H3            1 RES     
     739 N4          36.4991   -31.9654    15.5295 N4            1 RES     
     740 C1          36.7774   -31.0951    16.5441 C1            1 RES     
     741 C1          38.0439   -30.4941    16.6462 C1            1 RES     
     742 C1          38.9961   -30.7950    15.6706 C1            1 RES     
     743 N4          40.2345   -30.2408    15.6199 N4            1 RES     
     744 S2          40.8637   -30.9134    14.2475 S2            1 RES     
     745 N4          39.6481   -31.8898    13.6930 N4            1 RES     
     746 C1          38.6760   -31.6866    14.6162 C1            1 RES     
     747 C1          37.4161   -32.2778    14.5713 C1            1 RES     
     748 H5          36.0111   -30.8754    17.2824 H5            1 RES     
     749 C0          39.7482   -29.0031    21.9265 C0            1 RES     
     750 C0          38.3280   -29.5584    22.3222 C0            1 RES     
     751 C0          38.5402   -30.2792    23.6998 C0            1 RES     
     752 C0          37.3228   -30.9896    24.3043 C0            1 RES     
     753 C0          37.6353   -31.6188    25.6825 C0            1 RES     
     754 C0          38.7099   -32.7283    25.6874 C0            1 RES     
     755 C0          38.4391   -33.8968    24.7234 C0            1 RES     
     756 C0          37.0907   -34.5921    24.9823 C0            1 RES     
     757 C0          36.7977   -35.7213    23.9839 C0            1 RES     
     758 C0          37.7526   -36.9185    24.1264 C0            1 RES     
     759 C0          37.3796   -38.0885    23.2022 C0            1 RES     
     760 C0          37.5330   -37.7560    21.7175 C0            1 RES     
     761 C0          37.0999   -28.5908    22.3490 C0            1 RES     
     762 C0          37.0719   -27.4230    23.3825 C0            1 RES     
     763 C0          36.9689   -26.0946    22.6270 C0            1 RES     
     764 C0          37.2519   -24.8081    23.3975 C0            1 RES     
     765 C0          36.1224   -24.2784    24.2687 C0            1 RES     
     766 C0          36.6027   -22.9597    24.9103 C0            1 RES     
     767 C0          35.5149   -22.1957    25.6688 C0            1 RES     
     768 C0          34.4425   -21.6321    24.7342 C0            1 RES     
     769 H6          40.0832   -28.5083    22.8022 H6            1 RES     
     770 H6          40.3581   -29.9277    21.8131 H6            1 RES     
     771 H6          38.0635   -30.3253    21.5603 H6            1 RES     
     772 H6          38.8930   -29.5385    24.4504 H6            1 RES     
     773 H6          39.3464   -31.0321    23.5672 H6            1 RES     
     774 H6          36.9414   -31.7575    23.6009 H6            1 RES     
     775 H6          36.5177   -30.2480    24.4806 H6            1 RES     
     776 H6          36.6917   -32.0322    26.0948 H6            1 RES     
     777 H6          37.9622   -30.8202    26.3848 H6            1 RES     
     778 H6          38.7904   -33.1256    26.7238 H6            1 RES     
     779 H6          39.6996   -32.2921    25.4332 H6            1 RES     
     780 H6          38.4669   -33.5231    23.6781 H6            1 RES     
     781 H6          39.2690   -34.6236    24.8451 H6            1 RES     
     782 H6          36.2757   -33.8504    24.8576 H6            1 RES     
     783 H6          37.0516   -34.9831    26.0226 H6            1 RES     
     784 H6          35.7630   -36.0793    24.1771 H6            1 RES     
     785 H6          36.8351   -35.3030    22.9562 H6            1 RES     
     786 H6          38.8005   -36.6185    23.9182 H6            1 RES     
     787 H6          37.6941   -37.2840    25.1749 H6            1 RES     
     788 H6          36.3356   -38.4123    23.4062 H6            1 RES     
     789 H6          38.0561   -38.9397    23.4324 H6            1 RES     
     790 H6          36.8420   -36.9450    21.4112 H6            1 RES     
     791 H6          38.5787   -37.4513    21.4994 H6            1 RES     
     792 H6          37.2916   -38.6551    21.1128 H6            1 RES     
     793 H6          36.1930   -29.2047    22.5361 H6            1 RES     
     794 H6          36.9284   -28.2189    21.3162 H6            1 RES     
     795 H6          36.1879   -27.5104    24.0534 H6            1 RES     
     796 H6          37.9857   -27.4474    24.0101 H6            1 RES     
     797 H6          36.0324   -26.0175    22.0354 H6            1 RES     
     798 H6          37.7822   -26.1432    21.9344 H6            1 RES     
     799 H6          38.1698   -24.9333    23.9771 H6            1 RES     
     800 H6          37.4516   -24.0229    22.6332 H6            1 RES     
     801 H6          35.2508   -24.1006    23.6038 H6            1 RES     
     802 H6          35.8395   -25.0090    25.0557 H6            1 RES     
     803 H6          37.4296   -23.2021    25.6157 H6            1 RES     
     804 H6          37.0145   -22.2760    24.1334 H6            1 RES     
     805 H6          35.9996   -21.3324    26.1756 H6            1 RES     
     806 H6          35.0564   -22.8458    26.4433 H6            1 RES     
     807 H6          33.8859   -22.4402    24.2199 H6            1 RES     
     808 H6          33.7184   -21.0314    25.3210 H6            1 RES     
     809 H6          34.9097   -20.9704    23.9709 H6            1 RES     
     810 C0          41.7515   -28.1085    20.5063 C0            1 RES     
     811 C0          42.8355   -28.5396    21.5949 C0            1 RES     
     812 C0          44.1865   -27.8779    21.1600 C0            1 RES     
     813 C0          45.4408   -28.3678    21.9115 C0            1 RES     
     814 C0          46.7413   -27.6742    21.4688 C0            1 RES     
     815 C0          47.1187   -27.8448    19.9864 C0            1 RES     
     816 C0          47.1863   -29.2994    19.4923 C0            1 RES     
     817 C0          48.1737   -30.1711    20.2881 C0            1 RES     
     818 C0          48.2256   -31.6229    19.7852 C0            1 RES     
     819 C0          48.8140   -31.7452    18.3682 C0            1 RES     
     820 C0          48.9832   -33.2028    17.9122 C0            1 RES     
     821 C0          47.6550   -33.9420    17.7491 C0            1 RES     
     822 C0          42.6381   -28.4589    23.1670 C0            1 RES     
     823 C0          42.5337   -27.0996    23.9149 C0            1 RES     
     824 C0          41.0986   -26.7962    24.3816 C0            1 RES     
     825 C0          40.8742   -25.4593    25.0689 C0            1 RES     
     826 C0          41.4169   -25.3104    26.4833 C0            1 RES     
     827 C0          40.9161   -23.9533    27.0186 C0            1 RES     
     828 C0          41.2365   -23.6949    28.4919 C0            1 RES     
     829 C0          40.4692   -24.6317    29.4261 C0            1 RES     
     830 H6          42.0436   -27.1180    20.0859 H6            1 RES     
     831 H6          41.9641   -28.7681    19.6347 H6            1 RES     
     832 H6          42.9406   -29.6382    21.4397 H6            1 RES     
     833 H6          44.1077   -26.7762    21.2845 H6            1 RES     
     834 H6          44.3354   -28.0898    20.0794 H6            1 RES     
     835 H6          45.5330   -29.4679    21.7939 H6            1 RES     
     836 H6          45.3579   -28.1357    22.9909 H6            1 RES     
     837 H6          47.5666   -28.0704    22.0982 H6            1 RES     
     838 H6          46.6670   -26.5857    21.6848 H6            1 RES     
     839 H6          48.1068   -27.3595    19.8289 H6            1 RES     
     840 H6          46.3835   -27.3005    19.3561 H6            1 RES     
     841 H6          46.1745   -29.7557    19.5409 H6            1 RES     
     842 H6          47.4889   -29.2595    18.4261 H6            1 RES     
     843 H6          47.8441   -30.2113    21.3473 H6            1 RES     
     844 H6          49.1918   -29.7262    20.2573 H6            1 RES     
     845 H6          48.8758   -32.1967    20.4810 H6            1 RES     
     846 H6          47.2030   -32.0542    19.8293 H6            1 RES     
     847 H6          48.1821   -31.2135    17.6273 H6            1 RES     
     848 H6          49.8214   -31.2744    18.3710 H6            1 RES     
     849 H6          49.6295   -33.7502    18.6323 H6            1 RES     
     850 H6          49.4935   -33.1967    16.9250 H6            1 RES     
     851 H6          47.1198   -34.0284    18.7161 H6            1 RES     
     852 H6          47.0093   -33.4138    17.0155 H6            1 RES     
     853 H6          47.8508   -34.9685    17.3740 H6            1 RES     
     854 H6          43.5334   -28.9539    23.5860 H6            1 RES     
     855 H6          41.8945   -29.1823    23.5511 H6            1 RES     
     856 H6          43.1165   -27.1872    24.8583 H6            1 RES     
     857 H6          42.9878   -26.2826    23.3185 H6            1 RES     
     858 H6          40.7211   -27.6215    25.0271 H6            1 RES     
     859 H6          40.4428   -26.7193    23.5216 H6            1 RES     
     860 H6          41.2256   -24.6333    24.4131 H6            1 RES     
     861 H6          39.7809   -25.3853    25.1894 H6            1 RES     
     862 H6          41.0091   -26.1447    27.0922 H6            1 RES     
     863 H6          42.5258   -25.3564    26.4950 H6            1 RES     
     864 H6          41.3784   -23.1492    26.4047 H6            1 RES     
     865 H6          39.8110   -23.8745    26.8983 H6            1 RES     
     866 H6          40.9136   -22.6561    28.7231 H6            1 RES     
     867 H6          42.3281   -23.7742    28.6649 H6            1 RES     
     868 H6          40.7715   -25.6876    29.2792 H6            1 RES     
     869 H6          40.6810   -24.3533    30.4788 H6            1 RES     
     870 H6          39.3748   -24.5383    29.2514 H6            1 RES     
     871 C0          36.7669   -36.8215    11.6540 C0            1 RES     
     872 C1          36.7464   -35.3764    12.1988 C1            1 RES     
     873 C1          36.3742   -34.4731    11.2550 C1            1 RES     
     874 S2          36.4305   -32.8868    11.7871 S2            1 RES     
     875 C1          37.0071   -33.3508    13.3178 C1            1 RES     
     876 C1          37.1492   -34.7411    13.3853 C1            1 RES     
     877 C1          36.1499   -35.1526    10.0382 C1            1 RES     
     878 C1          36.4450   -36.4707    10.2005 C1            1 RES     
     879 C1          36.3845   -37.1768     9.0051 C1            1 RES     
     880 C1          35.9955   -36.3328     7.9513 C1            1 RES     
     881 S2          35.7467   -34.7380     8.4786 S2            1 RES     
     882 H3          37.5734   -35.2216    14.2464 H3            1 RES     
     883 H3          36.6119   -38.2311     8.9023 H3            1 RES     
     884 N4          34.6556   -37.0133     4.5173 N4            1 RES     
     885 C1          34.6988   -36.7143     5.8488 C1            1 RES     
     886 C1          35.9225   -36.6945     6.5400 C1            1 RES     
     887 C1          37.0887   -36.9659     5.8222 C1            1 RES     
     888 N4          38.3369   -36.9233     6.3546 N4            1 RES     
     889 S2          39.2881   -37.2603     5.0456 S2            1 RES     
     890 N4          38.2042   -37.4666     3.8123 N4            1 RES     
     891 C1          37.0191   -37.2542     4.4361 C1            1 RES     
     892 C1          35.7811   -37.2878     3.7998 C1            1 RES     
     893 H5          33.7736   -36.4990     6.3764 H5            1 RES     
     894 C0          35.7024   -37.8565    12.1624 C0            1 RES     
     895 C0          34.1563   -37.9527    11.8758 C0            1 RES     
     896 C0          33.6455   -39.1294    12.7796 C0            1 RES     
     897 C0          32.1641   -39.5061    12.6540 C0            1 RES     
     898 C0          31.7629   -40.6406    13.6260 C0            1 RES     
     899 C0          32.4745   -41.9945    13.4102 C0            1 RES     
     900 C0          32.3521   -42.5714    11.9888 C0            1 RES     
     901 C0          30.8928   -42.7675    11.5411 C0            1 RES     
     902 C0          30.7728   -43.2904    10.1025 C0            1 RES     
     903 C0          31.3040   -44.7238     9.9328 C0            1 RES     
     904 C0          31.0745   -45.2783     8.5178 C0            1 RES     
     905 C0          31.8677   -44.5338     7.4431 C0            1 RES     
     906 C0          33.2639   -36.6762    12.0142 C0            1 RES     
     907 C0          33.0920   -36.0144    13.4160 C0            1 RES     
     908 C0          33.5909   -34.5679    13.3461 C0            1 RES     
     909 C0          33.8262   -33.8267    14.6591 C0            1 RES     
     910 C0          32.5934   -33.2566    15.3450 C0            1 RES     
     911 C0          33.0626   -32.5152    16.6145 C0            1 RES     
     912 C0          31.9631   -31.7190    17.3212 C0            1 RES     
     913 C0          31.4973   -30.5161    16.4982 C0            1 RES     
     914 H6          35.7675   -37.8546    13.2204 H6            1 RES     
     915 H6          36.0865   -38.8394    11.8073 H6            1 RES     
     916 H6          34.0492   -38.2548    10.8100 H6            1 RES     
     917 H6          33.8301   -38.8783    13.8470 H6            1 RES     
     918 H6          34.2505   -40.0293    12.5374 H6            1 RES     
     919 H6          31.9295   -39.7865    11.6070 H6            1 RES     
     920 H6          31.5405   -38.6314    12.9285 H6            1 RES     
     921 H6          30.6672   -40.7946    13.5428 H6            1 RES     
     922 H6          31.9561   -40.3134    14.6717 H6            1 RES     
     923 H6          32.0517   -42.7255    14.1349 H6            1 RES     
     924 H6          33.5544   -41.8923    13.6505 H6            1 RES     
     925 H6          32.8699   -41.8973    11.2743 H6            1 RES     
     926 H6          32.8842   -43.5453    11.9814 H6            1 RES     
     927 H6          30.3784   -41.7851    11.5567 H6            1 RES     
     928 H6          30.3630   -43.4506    12.2407 H6            1 RES     
     929 H6          29.6939   -43.2874     9.8337 H6            1 RES     
     930 H6          31.3020   -42.5874     9.4256 H6            1 RES     
     931 H6          32.3877   -44.7764    10.1660 H6            1 RES     
     932 H6          30.7594   -45.3805    10.6458 H6            1 RES     
     933 H6          29.9908   -45.2460     8.2714 H6            1 RES     
     934 H6          31.3995   -46.3410     8.5065 H6            1 RES     
     935 H6          31.5507   -43.4742     7.3676 H6            1 RES     
     936 H6          32.9542   -44.5784     7.6694 H6            1 RES     
     937 H6          31.6902   -45.0130     6.4576 H6            1 RES     
     938 H6          32.2448   -36.9389    11.6580 H6            1 RES     
     939 H6          33.5983   -35.9350    11.2571 H6            1 RES     
     940 H6          32.0203   -35.9981    13.7164 H6            1 RES     
     941 H6          33.6562   -36.5874    14.1797 H6            1 RES     
     942 H6          33.0040   -33.9537    12.6310 H6            1 RES     
     943 H6          34.5778   -34.6684    12.9472 H6            1 RES     
     944 H6          34.3905   -34.4715    15.3373 H6            1 RES     
     945 H6          34.4784   -32.9573    14.4153 H6            1 RES     
     946 H6          32.1156   -32.5537    14.6300 H6            1 RES     
     947 H6          31.8701   -34.0561    15.6110 H6            1 RES     
     948 H6          33.4703   -33.2715    17.3230 H6            1 RES     
     949 H6          33.8865   -31.8068    16.3696 H6            1 RES     
     950 H6          32.3882   -31.3259    18.2709 H6            1 RES     
     951 H6          31.1058   -32.3804    17.5670 H6            1 RES     
     952 H6          31.0232   -30.8324    15.5483 H6            1 RES     
     953 H6          30.7537   -29.9347    17.0802 H6            1 RES     
     954 H6          32.3605   -29.8517    16.2696 H6            1 RES     
     955 C0          38.2463   -37.3265    11.8821 C0            1 RES     
     956 C0          38.6913   -38.4725    12.8994 C0            1 RES     
     957 C0          40.2147   -38.2454    13.1825 C0            1 RES     
     958 C0          40.9310   -39.3880    13.9304 C0            1 RES     
     959 C0          42.4193   -39.1122    14.2080 C0            1 RES     
     960 C0          43.3002   -38.8853    12.9664 C0            1 RES     
     961 C0          43.2320   -39.9958    11.9049 C0            1 RES     
     962 C0          43.6082   -41.3857    12.4478 C0            1 RES     
     963 C0          43.5302   -42.4850    11.3760 C0            1 RES     
     964 C0          44.5844   -42.3162    10.2673 C0            1 RES     
     965 C0          44.5914   -43.4797     9.2636 C0            1 RES     
     966 C0          43.3059   -43.5753     8.4416 C0            1 RES     
     967 C0          37.9161   -38.8740    14.2241 C0            1 RES     
     968 C0          37.8306   -37.9201    15.4491 C0            1 RES     
     969 C0          36.4336   -37.2936    15.6077 C0            1 RES     
     970 C0          36.2598   -36.2943    16.7394 C0            1 RES     
     971 C0          36.2223   -36.8534    18.1547 C0            1 RES     
     972 C0          35.8659   -35.6827    19.0936 C0            1 RES     
     973 C0          35.6310   -36.0863    20.5503 C0            1 RES     
     974 C0          34.3719   -36.9375    20.7214 C0            1 RES     
     975 H6          38.8914   -36.4326    12.0486 H6            1 RES     
     976 H6          38.6320   -37.6728    10.8966 H6            1 RES     
     977 H6          38.6027   -39.4064    12.2976 H6            1 RES     
     978 H6          40.3396   -37.3080    13.7663 H6            1 RES     
     979 H6          40.7247   -38.1094    12.2046 H6            1 RES     
     980 H6          40.8158   -40.3314    13.3567 H6            1 RES     
     981 H6          40.4848   -39.5304    14.9337 H6            1 RES     
     982 H6          42.8214   -39.9744    14.7818 H6            1 RES     
     983 H6          42.5095   -38.2194    14.8651 H6            1 RES     
     984 H6          44.3515   -38.7737    13.3110 H6            1 RES     
     985 H6          43.0117   -37.9279    12.4825 H6            1 RES     
     986 H6          42.2086   -40.0361    11.4744 H6            1 RES     
     987 H6          43.9294   -39.7035    11.0936 H6            1 RES     
     988 H6          42.8895   -41.6659    13.2460 H6            1 RES     
     989 H6          44.6277   -41.3637    12.8900 H6            1 RES     
     990 H6          43.7105   -43.4594    11.8800 H6            1 RES     
     991 H6          42.5044   -42.4982    10.9502 H6            1 RES     
     992 H6          44.4287   -41.3693     9.7106 H6            1 RES     
     993 H6          45.5869   -42.2796    10.7470 H6            1 RES     
     994 H6          44.7646   -44.4384     9.7992 H6            1 RES     
     995 H6          45.4357   -43.3200     8.5587 H6            1 RES     
     996 H6          42.4296   -43.7883     9.0864 H6            1 RES     
     997 H6          43.1343   -42.6288     7.8860 H6            1 RES     
     998 H6          43.4005   -44.4041     7.7089 H6            1 RES     
     999 H6          38.4413   -39.7745    14.5921 H6            1 RES     
    1000 H6          36.9413   -39.3593    14.0291 H6            1 RES     
    1001 H6          37.9613   -38.5355    16.3665 H6            1 RES     
    1002 H6          38.6511   -37.1745    15.4295 H6            1 RES     
    1003 H6          35.6605   -38.0915    15.6854 H6            1 RES     
    1004 H6          36.2026   -36.6896    14.7373 H6            1 RES     
    1005 H6          37.0138   -35.4826    16.6463 H6            1 RES     
    1006 H6          35.2529   -35.8714    16.5888 H6            1 RES     
    1007 H6          35.4344   -37.6353    18.1893 H6            1 RES     
    1008 H6          37.1974   -37.3035    18.4348 H6            1 RES     
    1009 H6          36.6976   -34.9452    19.0554 H6            1 RES     
    1010 H6          34.9440   -35.1682    18.7368 H6            1 RES     
    1011 H6          35.4822   -35.1506    21.1326 H6            1 RES     
    1012 H6          36.5201   -36.6145    20.9483 H6            1 RES     
    1013 H6          34.4655   -37.9095    20.1978 H6            1 RES     
    1014 H6          34.2096   -37.1386    21.8002 H6            1 RES     
    1015 H6          33.4842   -36.3954    20.3277 H6            1 RES     
    1016 C0          35.3395   -39.9664    -0.9127 C0            1 RES     
    1017 C1          35.4276   -38.8989     0.2001 C1            1 RES     
    1018 C1          35.6657   -37.6559    -0.2933 C1            1 RES     
    1019 S2          35.8586   -36.4902     0.8926 S2            1 RES     
    1020 C1          35.6701   -37.6315     2.1386 C1            1 RES     
    1021 C1          35.4624   -38.9079     1.6045 C1            1 RES     
    1022 C1          35.7925   -37.7399    -1.6968 C1            1 RES     
    1023 C1          35.7002   -39.0429    -2.0773 C1            1 RES     
    1024 C1          35.9588   -39.2174    -3.4315 C1            1 RES     
    1025 C1          36.2119   -37.9814    -4.0500 C1            1 RES     
    1026 S2          36.1362   -36.6949    -2.9443 S2            1 RES     
    1027 H3          35.3967   -39.7761     2.2323 H3            1 RES     
    1028 H3          35.9685   -40.1758    -3.9365 H3            1 RES     
    1029 N4          36.2125   -36.8910    -7.6363 N4            1 RES     
    1030 C1          35.7948   -37.1089    -6.3548 C1            1 RES     
    1031 C1          36.6204   -37.7791    -5.4356 C1            1 RES     
    1032 C1          37.8830   -38.1926    -5.8643 C1            1 RES     
    1033 N4          38.7979   -38.7972    -5.0638 N4            1 RES     
    1034 S2          40.0860   -38.9841    -6.0825 S2            1 RES     
    1035 N4          39.5566   -38.3389    -7.5114 N4            1 RES     
    1036 C1          38.3009   -37.9370    -7.1945 C1            1 RES     
    1037 C1          37.4379   -37.2924    -8.0768 C1            1 RES     
    1038 H5          34.8096   -36.7664    -6.0504 H5            1 RES     
    1039 C0          33.9604   -40.6463    -1.2269 C0            1 RES     
    1040 C0          32.6713   -40.0639    -1.9203 C0            1 RES     
    1041 C0          31.5999   -41.2057    -1.8163 C0            1 RES     
    1042 C0          30.2433   -40.9449    -2.4825 C0            1 RES     
    1043 C0          29.2524   -42.1141    -2.2725 C0            1 RES     
    1044 C0          29.6724   -43.4697    -2.8823 C0            1 RES     
    1045 C0          29.9930   -43.4318    -4.3869 C0            1 RES     
    1046 C0          28.8224   -42.9118    -5.2400 C0            1 RES     
    1047 C0          29.1639   -42.8221    -6.7343 C0            1 RES     
    1048 C0          29.3872   -44.1963    -7.3880 C0            1 RES     
    1049 C0          29.6147   -44.1019    -8.9051 C0            1 RES     
    1050 C0          30.9094   -43.3778    -9.2763 C0            1 RES     
    1051 C0          32.1031   -38.6820    -1.4590 C0            1 RES     
    1052 C0          31.5462   -38.5321    -0.0098 C0            1 RES     
    1053 C0          32.3395   -37.4411     0.7159 C0            1 RES     
    1054 C0          32.1986   -37.3410     2.2321 C0            1 RES     
    1055 C0          30.9552   -36.6340     2.7512 C0            1 RES     
    1056 C0          31.0402   -36.6044     4.2918 C0            1 RES     
    1057 C0          29.9578   -35.7581     4.9659 C0            1 RES     
    1058 C0          30.1315   -34.2638     4.6865 C0            1 RES     
    1059 H6          33.6038   -41.0343    -0.3071 H6            1 RES     
    1060 H6          34.2248   -41.5133    -1.8734 H6            1 RES     
    1061 H6          32.9270   -39.9171    -2.9935 H6            1 RES     
    1062 H6          31.4015   -41.4255    -0.7445 H6            1 RES     
    1063 H6          32.0357   -42.1210    -2.2712 H6            1 RES     
    1064 H6          30.3826   -40.7392    -3.5633 H6            1 RES     
    1065 H6          29.7727   -40.0558    -2.0163 H6            1 RES     
    1066 H6          28.2727   -41.8169    -2.7005 H6            1 RES     
    1067 H6          29.0871   -42.2637    -1.1825 H6            1 RES     
    1068 H6          28.8486   -44.1968    -2.7062 H6            1 RES     
    1069 H6          30.5648   -43.8602    -2.3479 H6            1 RES     
    1070 H6          30.8850   -42.7921    -4.5551 H6            1 RES     
    1071 H6          30.2551   -44.4655    -4.6942 H6            1 RES     
    1072 H6          28.5748   -41.8800    -4.9173 H6            1 RES     
    1073 H6          27.9236   -43.5496    -5.0918 H6            1 RES     
    1074 H6          28.3070   -42.3313    -7.2451 H6            1 RES     
    1075 H6          30.0578   -42.1746    -6.8544 H6            1 RES     
    1076 H6          30.2515   -44.7194    -6.9288 H6            1 RES     
    1077 H6          28.4758   -44.8106    -7.2203 H6            1 RES     
    1078 H6          28.7510   -43.5918    -9.3849 H6            1 RES     
    1079 H6          29.6738   -45.1351    -9.3104 H6            1 RES     
    1080 H6          30.8908   -42.3202    -8.9444 H6            1 RES     
    1081 H6          31.7807   -43.8926    -8.8186 H6            1 RES     
    1082 H6          31.0315   -43.3860   -10.3797 H6            1 RES     
    1083 H6          31.2749   -38.4125    -2.1488 H6            1 RES     
    1084 H6          32.8630   -37.9025    -1.6812 H6            1 RES     
    1085 H6          30.4752   -38.2292    -0.0275 H6            1 RES     
    1086 H6          31.6233   -39.4978     0.5299 H6            1 RES     
    1087 H6          32.2323   -36.4483     0.2303 H6            1 RES     
    1088 H6          33.3549   -37.7516     0.5893 H6            1 RES     
    1089 H6          32.2934   -38.3392     2.6665 H6            1 RES     
    1090 H6          33.0691   -36.7446     2.5887 H6            1 RES     
    1091 H6          30.9650   -35.6046     2.3344 H6            1 RES     
    1092 H6          30.0280   -37.1517     2.4264 H6            1 RES     
    1093 H6          30.9586   -37.6520     4.6604 H6            1 RES     
    1094 H6          32.0288   -36.2096     4.6197 H6            1 RES     
    1095 H6          30.0518   -35.9027     6.0647 H6            1 RES     
    1096 H6          28.9495   -36.1004     4.6513 H6            1 RES     
    1097 H6          30.0108   -34.0349     3.6093 H6            1 RES     
    1098 H6          29.3681   -33.6904     5.2505 H6            1 RES     
    1099 H6          31.1389   -33.9271     5.0186 H6            1 RES     
    1100 C0          36.4588   -41.0235    -0.5586 C0            1 RES     
    1101 C0          36.2030   -42.5282    -0.0933 C0            1 RES     
    1102 C0          37.5022   -42.9881     0.6504 C0            1 RES     
    1103 C0          37.5951   -44.4961     0.9589 C0            1 RES     
    1104 C0          38.8759   -44.8991     1.7108 C0            1 RES     
    1105 C0          40.1997   -44.5965     0.9862 C0            1 RES     
    1106 C0          40.3093   -45.1638    -0.4388 C0            1 RES     
    1107 C0          40.1242   -46.6900    -0.5062 C0            1 RES     
    1108 C0          40.2315   -47.2404    -1.9375 C0            1 RES     
    1109 C0          41.6451   -47.0976    -2.5296 C0            1 RES     
    1110 C0          41.7874   -47.7581    -3.9097 C0            1 RES     
    1111 C0          40.9412   -47.0855    -4.9907 C0            1 RES     
    1112 C0          34.9022   -43.0491     0.6508 C0            1 RES     
    1113 C0          34.5565   -42.6173     2.1041 C0            1 RES     
    1114 C0          33.3860   -41.6191     2.1562 C0            1 RES     
    1115 C0          33.0082   -41.0835     3.5273 C0            1 RES     
    1116 C0          32.2955   -42.0421     4.4709 C0            1 RES     
    1117 C0          31.8683   -41.2248     5.7072 C0            1 RES     
    1118 C0          30.9976   -41.9911     6.7046 C0            1 RES     
    1119 C0          29.6179   -42.3242     6.1351 C0            1 RES     
    1120 H6          37.1675   -40.5452     0.1569 H6            1 RES     
    1121 H6          37.1130   -41.1232    -1.4541 H6            1 RES     
    1122 H6          36.1531   -43.0944    -1.0519 H6            1 RES     
    1123 H6          37.5923   -42.4258     1.6049 H6            1 RES     
    1124 H6          38.3713   -42.7193     0.0123 H6            1 RES     
    1125 H6          37.5082   -45.0705     0.0128 H6            1 RES     
    1126 H6          36.7715   -44.8025     1.6326 H6            1 RES     
    1127 H6          38.8186   -45.9896     1.9152 H6            1 RES     
    1128 H6          38.8963   -44.3881     2.6984 H6            1 RES     
    1129 H6          41.0278   -45.0044     1.6062 H6            1 RES     
    1130 H6          40.3441   -43.4964     0.9312 H6            1 RES     
    1131 H6          39.5557   -44.6748    -1.0924 H6            1 RES     
    1132 H6          41.3150   -44.8863    -0.8152 H6            1 RES     
    1133 H6          39.1073   -46.9447    -0.1412 H6            1 RES     
    1134 H6          40.8657   -47.1974     0.1481 H6            1 RES     
    1135 H6          39.9788   -48.3225    -1.9015 H6            1 RES     
    1136 H6          39.4799   -46.7288    -2.5756 H6            1 RES     
    1137 H6          41.9343   -46.0300    -2.6166 H6            1 RES     
    1138 H6          42.3599   -47.5990    -1.8412 H6            1 RES     
    1139 H6          41.5194   -48.8349    -3.8414 H6            1 RES     
    1140 H6          42.8530   -47.6858    -4.2167 H6            1 RES     
    1141 H6          39.8586   -47.1714    -4.7675 H6            1 RES     
    1142 H6          41.2157   -46.0130    -5.0812 H6            1 RES     
    1143 H6          41.1294   -47.5828    -5.9654 H6            1 RES     
    1144 H6          35.0272   -44.1466     0.6949 H6            1 RES     
    1145 H6          34.0010   -43.0437     0.0093 H6            1 RES     
    1146 H6          34.1770   -43.5139     2.6419 H6            1 RES     
    1147 H6          35.4619   -42.2670     2.6399 H6            1 RES     
    1148 H6          32.4886   -42.0520     1.6586 H6            1 RES     
    1149 H6          33.6551   -40.7118     1.6270 H6            1 RES     
    1150 H6          33.8976   -40.6264     4.0130 H6            1 RES     
    1151 H6          32.2621   -40.2972     3.3261 H6            1 RES     
    1152 H6          31.4054   -42.4408     3.9399 H6            1 RES     
    1153 H6          32.9564   -42.8850     4.7618 H6            1 RES     
    1154 H6          32.7892   -40.8792     6.2265 H6            1 RES     
    1155 H6          31.2993   -40.3192     5.3940 H6            1 RES     
    1156 H6          30.8436   -41.3296     7.5853 H6            1 RES     
    1157 H6          31.5181   -42.9107     7.0381 H6            1 RES     
    1158 H6          29.6915   -43.0172     5.2735 H6            1 RES     
    1159 H6          29.0052   -42.8115     6.9210 H6            1 RES     
    1160 H6          29.1000   -41.3946     5.8118 H6            1 RES     
    1161 C0          38.2993   -37.8151   -13.4212 C0            1 RES     
    1162 C1          38.1778   -37.3099   -11.9666 C1            1 RES     
    1163 C1          38.8594   -36.1528   -11.7623 C1            1 RES     
    1164 S2          38.8246   -35.6266   -10.1735 S2            1 RES     
    1165 C1          37.9144   -36.9742    -9.6773 C1            1 RES     
    1166 C1          37.6558   -37.8160   -10.7645 C1            1 RES     
    1167 C1          39.5046   -35.7867   -12.9633 C1            1 RES     
    1168 C1          39.2829   -36.7468   -13.9013 C1            1 RES     
    1169 C1          40.0064   -36.5240   -15.0667 C1            1 RES     
    1170 C1          40.7490   -35.3352   -14.9683 C1            1 RES     
    1171 S2          40.5326   -34.5785   -13.4636 S2            1 RES     
    1172 H3          37.1585   -38.7591   -10.6394 H3            1 RES     
    1173 H3          40.0009   -37.1810   -15.9282 H3            1 RES     
    1174 N4          42.3982   -33.1535   -17.5316 N4            1 RES     
    1175 C1          41.4742   -33.6318   -16.6474 C1            1 RES     
    1176 C1          41.7021   -34.8311   -15.9506 C1            1 RES     
    1177 C1          42.9059   -35.5026   -16.1718 C1            1 RES     
    1178 N4          43.2745   -36.6369   -15.5230 N4            1 RES     
    1179 S2          44.7827   -36.9180   -16.1379 S2            1 RES     
    1180 N4          45.0137   -35.6726   -17.2028 N4            1 RES     
    1181 C1          43.8575   -34.9750   -17.0803 C1            1 RES     
    1182 C1          43.5760   -33.7969   -17.7671 C1            1 RES     
    1183 H5          40.5511   -33.0803   -16.4915 H5            1 RES     
    1184 C0          37.0408   -37.7885   -14.3583 C0            1 RES     
    1185 C0          36.2911   -36.5734   -15.0241 C0            1 RES     
    1186 C0          35.0409   -37.2032   -15.7331 C0            1 RES     
    1187 C0          34.1489   -36.2506   -16.5388 C0            1 RES     
    1188 C0          32.9229   -36.9702   -17.1488 C0            1 RES     
    1189 C0          33.2368   -38.0842   -18.1716 C0            1 RES     
    1190 C0          34.1218   -37.6487   -19.3528 C0            1 RES     
    1191 C0          33.5268   -36.4757   -20.1518 C0            1 RES     
    1192 C0          34.4378   -36.0067   -21.2953 C0            1 RES     
    1193 C0          34.5892   -37.0495   -22.4156 C0            1 RES     
    1194 C0          35.4084   -36.5268   -23.6064 C0            1 RES     
    1195 C0          36.8703   -36.2473   -23.2554 C0            1 RES     
    1196 C0          35.9090   -35.3311   -14.1548 C0            1 RES     
    1197 C0          34.8765   -35.4986   -12.9978 C0            1 RES     
    1198 C0          35.5416   -35.0977   -11.6776 C0            1 RES     
    1199 C0          34.8431   -35.4838   -10.3769 C0            1 RES     
    1200 C0          33.6860   -34.5971    -9.9408 C0            1 RES     
    1201 C0          33.1640   -35.1352    -8.5920 C0            1 RES     
    1202 C0          32.1207   -34.2408    -7.9185 C0            1 RES     
    1203 C0          32.7164   -32.9169    -7.4351 C0            1 RES     
    1204 H6          36.2756   -38.3111   -13.8434 H6            1 RES     
    1205 H6          37.3385   -38.4109   -15.2323 H6            1 RES     
    1206 H6          36.9730   -36.1692   -15.8053 H6            1 RES     
    1207 H6          34.3945   -37.6910   -14.9710 H6            1 RES     
    1208 H6          35.4056   -37.9962   -16.4205 H6            1 RES     
    1209 H6          34.7430   -35.7503   -17.3304 H6            1 RES     
    1210 H6          33.7429   -35.4713   -15.8627 H6            1 RES     
    1211 H6          32.2822   -36.2066   -17.6362 H6            1 RES     
    1212 H6          32.3145   -37.4158   -16.3308 H6            1 RES     
    1213 H6          32.2712   -38.4715   -18.5666 H6            1 RES     
    1214 H6          33.7373   -38.9332   -17.6587 H6            1 RES     
    1215 H6          35.1258   -37.3648   -18.9728 H6            1 RES     
    1216 H6          34.2473   -38.5315   -20.0136 H6            1 RES     
    1217 H6          33.4077   -35.6053   -19.4749 H6            1 RES     
    1218 H6          32.5249   -36.7487   -20.5498 H6            1 RES     
    1219 H6          33.9820   -35.0921   -21.7334 H6            1 RES     
    1220 H6          35.4264   -35.7333   -20.8702 H6            1 RES     
    1221 H6          35.0647   -37.9768   -22.0341 H6            1 RES     
    1222 H6          33.5736   -37.3043   -22.7897 H6            1 RES     
    1223 H6          34.9387   -35.6038   -24.0111 H6            1 RES     
    1224 H6          35.3913   -37.3009   -24.4037 H6            1 RES     
    1225 H6          36.9578   -35.4416   -22.4990 H6            1 RES     
    1226 H6          37.3545   -37.1695   -22.8696 H6            1 RES     
    1227 H6          37.4104   -35.9176   -24.1675 H6            1 RES     
    1228 H6          35.5001   -34.5563   -14.8381 H6            1 RES     
    1229 H6          36.8473   -34.8592   -13.7921 H6            1 RES     
    1230 H6          33.9944   -34.8384   -13.1569 H6            1 RES     
    1231 H6          34.5196   -36.5476   -12.9545 H6            1 RES     
    1232 H6          35.8564   -34.0329   -11.6705 H6            1 RES     
    1233 H6          36.4289   -35.6941   -11.6596 H6            1 RES     
    1234 H6          34.5361   -36.5311   -10.4334 H6            1 RES     
    1235 H6          35.6124   -35.4108    -9.5748 H6            1 RES     
    1236 H6          34.0863   -33.5673    -9.8278 H6            1 RES     
    1237 H6          32.8711   -34.5923   -10.6951 H6            1 RES     
    1238 H6          32.7144   -36.1379    -8.7732 H6            1 RES     
    1239 H6          34.0053   -35.2698    -7.8746 H6            1 RES     
    1240 H6          31.7414   -34.7800    -7.0227 H6            1 RES     
    1241 H6          31.2682   -34.0582    -8.6061 H6            1 RES     
    1242 H6          33.0821   -32.3025    -8.2813 H6            1 RES     
    1243 H6          31.9407   -32.3369    -6.8952 H6            1 RES     
    1244 H6          33.5601   -33.1100    -6.7353 H6            1 RES     
    1245 C0          38.9254   -39.2608   -13.3039 C0            1 RES     
    1246 C0          38.1811   -40.6278   -13.6552 C0            1 RES     
    1247 C0          38.9472   -41.7582   -12.8885 C0            1 RES     
    1248 C0          38.5749   -43.2016   -13.2834 C0            1 RES     
    1249 C0          39.3341   -44.2789   -12.4889 C0            1 RES     
    1250 C0          40.8672   -44.2519   -12.6223 C0            1 RES     
    1251 C0          41.3985   -44.2895   -14.0648 C0            1 RES     
    1252 C0          40.9215   -45.5167   -14.8613 C0            1 RES     
    1253 C0          41.4571   -45.5367   -16.3021 C0            1 RES     
    1254 C0          42.9829   -45.7264   -16.3713 C0            1 RES     
    1255 C0          43.5051   -45.8720   -17.8091 C0            1 RES     
    1256 C0          43.3229   -44.6072   -18.6482 C0            1 RES     
    1257 C0          36.6125   -40.8585   -13.5979 C0            1 RES     
    1258 C0          35.8293   -40.8613   -12.2545 C0            1 RES     
    1259 C0          34.9851   -39.5882   -12.0656 C0            1 RES     
    1260 C0          34.2285   -39.4612   -10.7537 C0            1 RES     
    1261 C0          33.0096   -40.3544   -10.5702 C0            1 RES     
    1262 C0          32.3242   -39.9194    -9.2587 C0            1 RES     
    1263 C0          30.9858   -40.6073    -8.9837 C0            1 RES     
    1264 C0          29.9037   -40.1926    -9.9818 C0            1 RES     
    1265 H6          39.3832   -39.3546   -12.2917 H6            1 RES     
    1266 H6          39.8388   -39.2769   -13.9407 H6            1 RES     
    1267 H6          38.3873   -40.7672   -14.7415 H6            1 RES     
    1268 H6          38.7777   -41.6355   -11.7969 H6            1 RES     
    1269 H6          40.0330   -41.6237   -13.0828 H6            1 RES     
    1270 H6          38.7414   -43.3388   -14.3725 H6            1 RES     
    1271 H6          37.5075   -43.3975   -13.0639 H6            1 RES     
    1272 H6          38.9611   -45.2706   -12.8230 H6            1 RES     
    1273 H6          39.0780   -44.1864   -11.4105 H6            1 RES     
    1274 H6          41.2728   -45.1221   -12.0611 H6            1 RES     
    1275 H6          41.2615   -43.3355   -12.1335 H6            1 RES     
    1276 H6          41.0906   -43.3650   -14.5984 H6            1 RES     
    1277 H6          42.5055   -44.2881   -13.9962 H6            1 RES     
    1278 H6          39.8141   -45.4904   -14.9322 H6            1 RES     
    1279 H6          41.2144   -46.4530   -14.3386 H6            1 RES     
    1280 H6          40.9776   -46.3913   -16.8273 H6            1 RES     
    1281 H6          41.1498   -44.5987   -16.8116 H6            1 RES     
    1282 H6          43.5118   -44.8801   -15.8866 H6            1 RES     
    1283 H6          43.2399   -46.6595   -15.8238 H6            1 RES     
    1284 H6          43.0006   -46.7276   -18.3084 H6            1 RES     
    1285 H6          44.5929   -46.0938   -17.7585 H6            1 RES     
    1286 H6          42.2499   -44.3620   -18.7808 H6            1 RES     
    1287 H6          43.8411   -43.7499   -18.1681 H6            1 RES     
    1288 H6          43.7632   -44.7687   -19.6546 H6            1 RES     
    1289 H6          36.4636   -41.8676   -14.0240 H6            1 RES     
    1290 H6          36.0608   -40.3019   -14.3786 H6            1 RES     
    1291 H6          35.0808   -41.6828   -12.3014 H6            1 RES     
    1292 H6          36.5049   -41.0757   -11.4018 H6            1 RES     
    1293 H6          34.2832   -39.4613   -12.9210 H6            1 RES     
    1294 H6          35.6340   -38.7201   -12.0355 H6            1 RES     
    1295 H6          34.9332   -39.5601    -9.8996 H6            1 RES     
    1296 H6          33.8155   -38.4390   -10.7653 H6            1 RES     
    1297 H6          32.3350   -40.1892   -11.4367 H6            1 RES     
    1298 H6          33.2987   -41.4252   -10.5301 H6            1 RES     
    1299 H6          33.0191   -40.1378    -8.4181 H6            1 RES     
    1300 H6          32.1398   -38.8203    -9.2652 H6            1 RES     
    1301 H6          30.6493   -40.2838    -7.9741 H6            1 RES     
    1302 H6          31.1159   -41.7076    -8.9789 H6            1 RES     
    1303 H6          30.1540   -40.5203   -11.0103 H6            1 RES     
    1304 H6          28.9404   -40.6608    -9.6931 H6            1 RES     
    1305 H6          29.7742   -39.0880    -9.9726 H6            1 RES     
    1306 C0          46.3263   -32.7162   -22.3329 C0            1 RES     
    1307 C1          45.7590   -32.7382   -20.8964 C1            1 RES     
    1308 C1          46.5437   -32.0590   -20.0200 C1            1 RES     
    1309 S2          46.0058   -32.1410   -18.4368 S2            1 RES     
    1310 C1          44.7000   -33.1433   -18.8623 C1            1 RES     
    1311 C1          44.7092   -33.3998   -20.2377 C1            1 RES     
    1312 C1          47.6720   -31.5638   -20.7087 C1            1 RES     
    1313 C1          47.6294   -31.9877   -22.0008 C1            1 RES     
    1314 C1          48.7820   -31.6574   -22.7035 C1            1 RES     
    1315 C1          49.6696   -30.9365   -21.8870 C1            1 RES     
    1316 S2          49.0537   -30.7237   -20.3189 S2            1 RES     
    1317 H3          44.0072   -34.0755   -20.6882 H3            1 RES     
    1318 H3          48.9695   -31.9250   -23.7364 H3            1 RES     
    1319 N4          52.6311   -28.7697   -22.6520 N4            1 RES     
    1320 C1          51.3533   -29.1501   -22.3572 C1            1 RES     
    1321 C1          51.0177   -30.5105   -22.2461 C1            1 RES     
    1322 C1          52.0303   -31.4551   -22.4227 C1            1 RES     
    1323 N4          51.8535   -32.7943   -22.2861 N4            1 RES     
    1324 S2          53.3789   -33.3772   -22.5417 S2            1 RES     
    1325 N4          54.2789   -32.0178   -22.8254 N4            1 RES     
    1326 C1          53.3532   -31.0338   -22.7086 C1            1 RES     
    1327 C1          53.6324   -29.6756   -22.8349 C1            1 RES     
    1328 H5          50.5903   -28.3894   -22.2170 H5            1 RES     
    1329 C0          45.5764   -31.9082   -23.4498 C0            1 RES     
    1330 C0          45.4376   -30.3536   -23.6642 C0            1 RES     
    1331 C0          44.4602   -30.1945   -24.8814 C0            1 RES     
    1332 C0          44.1911   -28.7662   -25.3713 C0            1 RES     
    1333 C0          43.1765   -28.7278   -26.5383 C0            1 RES     
    1334 C0          43.6112   -29.4515   -27.8318 C0            1 RES     
    1335 C0          44.9612   -28.9911   -28.4094 C0            1 RES     
    1336 C0          45.0034   -27.4835   -28.7158 C0            1 RES     
    1337 C0          46.3693   -27.0167   -29.2392 C0            1 RES     
    1338 C0          46.7130   -27.5857   -30.6262 C0            1 RES     
    1339 C0          48.0274   -27.0226   -31.1897 C0            1 RES     
    1340 C0          49.2567   -27.4380   -30.3807 C0            1 RES     
    1341 C0          45.0306   -29.4410   -22.4614 C0            1 RES     
    1342 C0          43.6178   -29.6075   -21.8220 C0            1 RES     
    1343 C0          43.7824   -29.9613   -20.3409 C0            1 RES     
    1344 C0          42.5629   -30.4887   -19.5902 C0            1 RES     
    1345 C0          41.5552   -29.4495   -19.1208 C0            1 RES     
    1346 C0          40.4408   -30.1895   -18.3516 C0            1 RES     
    1347 C0          39.4433   -29.2675   -17.6466 C0            1 RES     
    1348 C0          40.0787   -28.5092   -16.4793 C0            1 RES     
    1349 H6          44.5755   -32.2572   -23.4481 H6            1 RES     
    1350 H6          46.0472   -32.2526   -24.3982 H6            1 RES     
    1351 H6          46.4424   -29.9841   -23.9684 H6            1 RES     
    1352 H6          43.4760   -30.6425   -24.6222 H6            1 RES     
    1353 H6          44.8797   -30.7755   -25.7305 H6            1 RES     
    1354 H6          45.1428   -28.2779   -25.6638 H6            1 RES     
    1355 H6          43.7360   -28.1781   -24.5490 H6            1 RES     
    1356 H6          42.9649   -27.6648   -26.7764 H6            1 RES     
    1357 H6          42.2137   -29.1726   -26.2023 H6            1 RES     
    1358 H6          42.8184   -29.2956   -28.5970 H6            1 RES     
    1359 H6          43.6686   -30.5456   -27.6474 H6            1 RES     
    1360 H6          45.7713   -29.2450   -27.6936 H6            1 RES     
    1361 H6          45.1370   -29.5711   -29.3391 H6            1 RES     
    1362 H6          44.8243   -26.9220   -27.7763 H6            1 RES     
    1363 H6          44.2047   -27.2147   -29.4414 H6            1 RES     
    1364 H6          46.3369   -25.9082   -29.3185 H6            1 RES     
    1365 H6          47.1456   -27.2897   -28.4939 H6            1 RES     
    1366 H6          46.7823   -28.6928   -30.5958 H6            1 RES     
    1367 H6          45.8967   -27.3044   -31.3268 H6            1 RES     
    1368 H6          47.9714   -25.9132   -31.2403 H6            1 RES     
    1369 H6          48.1535   -27.4093   -32.2240 H6            1 RES     
    1370 H6          49.2164   -27.0356   -29.3484 H6            1 RES     
    1371 H6          49.3332   -28.5455   -30.3420 H6            1 RES     
    1372 H6          50.1698   -27.0357   -30.8672 H6            1 RES     
    1373 H6          45.1053   -28.3856   -22.8006 H6            1 RES     
    1374 H6          45.8304   -29.5025   -21.6927 H6            1 RES     
    1375 H6          43.0390   -28.6591   -21.8903 H6            1 RES     
    1376 H6          43.0497   -30.3979   -22.3533 H6            1 RES     
    1377 H6          44.2964   -29.1593   -19.7704 H6            1 RES     
    1378 H6          44.4353   -30.8078   -20.3625 H6            1 RES     
    1379 H6          42.0789   -31.2613   -20.1927 H6            1 RES     
    1380 H6          42.9511   -30.9848   -18.6716 H6            1 RES     
    1381 H6          42.0964   -28.7457   -18.4535 H6            1 RES     
    1382 H6          41.1247   -28.8860   -19.9754 H6            1 RES     
    1383 H6          39.8883   -30.8283   -19.0776 H6            1 RES     
    1384 H6          40.8805   -30.8621   -17.5802 H6            1 RES     
    1385 H6          38.6337   -29.9041   -17.2265 H6            1 RES     
    1386 H6          38.9925   -28.5598   -18.3737 H6            1 RES     
    1387 H6          40.8733   -27.8199   -16.8267 H6            1 RES     
    1388 H6          39.3029   -27.9107   -15.9603 H6            1 RES     
    1389 H6          40.5145   -29.2271   -15.7489 H6            1 RES     
    1390 C0          46.5189   -34.2349   -22.7228 C0            1 RES     
    1391 C0          45.6894   -35.0217   -23.8359 C0            1 RES     
    1392 C0          45.8220   -36.5439   -23.4928 C0            1 RES     
    1393 C0          45.3249   -37.5179   -24.5801 C0            1 RES     
    1394 C0          45.4521   -39.0013   -24.1911 C0            1 RES     
    1395 C0          46.8791   -39.4936   -23.8904 C0            1 RES     
    1396 C0          47.9111   -39.2220   -24.9975 C0            1 RES     
    1397 C0          47.5259   -39.8320   -26.3568 C0            1 RES     
    1398 C0          48.5649   -39.5472   -27.4534 C0            1 RES     
    1399 C0          49.9122   -40.2462   -27.1979 C0            1 RES     
    1400 C0          50.9103   -40.0661   -28.3523 C0            1 RES     
    1401 C0          51.3571   -38.6166   -28.5431 C0            1 RES     
    1402 C0          44.2155   -34.6661   -24.3029 C0            1 RES     
    1403 C0          42.9886   -34.8461   -23.3647 C0            1 RES     
    1404 C0          42.4429   -33.5024   -22.8492 C0            1 RES     
    1405 C0          41.2808   -33.5691   -21.8720 C0            1 RES     
    1406 C0          39.9228   -33.9576   -22.4394 C0            1 RES     
    1407 C0          38.8927   -33.7841   -21.3046 C0            1 RES     
    1408 C0          37.4375   -33.9831   -21.7325 C0            1 RES     
    1409 C0          36.9551   -32.8833   -22.6796 C0            1 RES     
    1410 H6          46.5097   -34.8337   -21.7823 H6            1 RES     
    1411 H6          47.5805   -34.3633   -23.0332 H6            1 RES     
    1412 H6          46.2688   -34.8420   -24.7708 H6            1 RES     
    1413 H6          45.2696   -36.7533   -22.5514 H6            1 RES     
    1414 H6          46.8974   -36.7584   -23.3127 H6            1 RES     
    1415 H6          45.8704   -37.3209   -25.5267 H6            1 RES     
    1416 H6          44.2424   -37.3720   -24.7616 H6            1 RES     
    1417 H6          45.0306   -39.6059   -25.0224 H6            1 RES     
    1418 H6          44.8209   -39.2005   -23.2973 H6            1 RES     
    1419 H6          46.8282   -40.5879   -23.6993 H6            1 RES     
    1420 H6          47.2424   -39.0154   -22.9558 H6            1 RES     
    1421 H6          48.0504   -38.1260   -25.1148 H6            1 RES     
    1422 H6          48.8727   -39.6500   -24.6480 H6            1 RES     
    1423 H6          46.5709   -39.3790   -26.6958 H6            1 RES     
    1424 H6          47.3749   -40.9287   -26.2580 H6            1 RES     
    1425 H6          48.1536   -39.9282   -28.4134 H6            1 RES     
    1426 H6          48.6984   -38.4482   -27.5439 H6            1 RES     
    1427 H6          50.3817   -39.8765   -26.2630 H6            1 RES     
    1428 H6          49.7201   -41.3356   -27.0859 H6            1 RES     
    1429 H6          50.4662   -40.4477   -29.2972 H6            1 RES     
    1430 H6          51.8124   -40.6737   -28.1241 H6            1 RES     
    1431 H6          50.5055   -37.9659   -28.8266 H6            1 RES     
    1432 H6          51.8212   -38.2320   -27.6100 H6            1 RES     
    1433 H6          52.1093   -38.5695   -29.3584 H6            1 RES     
    1434 H6          44.0262   -35.3359   -25.1618 H6            1 RES     
    1435 H6          44.1527   -33.7132   -24.8613 H6            1 RES     
    1436 H6          42.1567   -35.2653   -23.9726 H6            1 RES     
    1437 H6          43.2096   -35.5736   -22.5576 H6            1 RES     
    1438 H6          42.1800   -32.8399   -23.7050 H6            1 RES     
    1439 H6          43.2027   -33.0006   -22.2605 H6            1 RES     
    1440 H6          41.5529   -34.2080   -21.0039 H6            1 RES     
    1441 H6          41.1432   -32.5308   -21.5277 H6            1 RES     
    1442 H6          39.6971   -33.2681   -23.2802 H6            1 RES     
    1443 H6          39.9279   -35.0024   -22.8139 H6            1 RES     
    1444 H6          39.1348   -34.5180   -20.5046 H6            1 RES     
    1445 H6          38.9741   -32.7649   -20.8613 H6            1 RES     
    1446 H6          36.8127   -33.9295   -20.8140 H6            1 RES     
    1447 H6          37.3080   -34.9830   -22.1921 H6            1 RES     
    1448 H6          37.5095   -32.9025   -23.6388 H6            1 RES     
    1449 H6          35.8781   -33.0347   -22.8980 H6            1 RES     
    1450 H6          37.0806   -31.8849   -22.2060 H6            1 RES     
    1451 C0          58.1186   -28.1710   -25.5160 C0            1 RES     
    1452 C1          57.0436   -28.4788   -24.4505 C1            1 RES     
    1453 C1          57.5507   -28.4826   -23.1903 C1            1 RES     
    1454 S2          56.4312   -28.9037   -22.0191 S2            1 RES     
    1455 C1          55.2103   -29.1440   -23.1778 C1            1 RES     
    1456 C1          55.7014   -28.8935   -24.4638 C1            1 RES     
    1457 C1          58.9380   -28.2301   -23.2573 C1            1 RES     
    1458 C1          59.3130   -28.1338   -24.5615 C1            1 RES     
    1459 C1          60.6908   -28.0278   -24.7086 C1            1 RES     
    1460 C1          61.3226   -28.0126   -23.4537 C1            1 RES     
    1461 S2          60.2046   -28.1453   -22.1825 S2            1 RES     
    1462 H3          55.1018   -29.0643   -25.3376 H3            1 RES     
    1463 H3          61.2043   -27.9705   -25.6609 H3            1 RES     
    1464 N4          64.7466   -26.9613   -22.3486 N4            1 RES     
    1465 C1          63.4060   -26.9237   -22.6046 C1            1 RES     
    1466 C1          62.7613   -28.0143   -23.2134 C1            1 RES     
    1467 C1          63.5253   -29.1402   -23.5256 C1            1 RES     
    1468 N4          63.0172   -30.2796   -24.0614 N4            1 RES     
    1469 S2          64.3501   -31.2535   -24.1428 S2            1 RES     
    1470 N4          65.5660   -30.3109   -23.5335 N4            1 RES     
    1471 C1          64.9118   -29.1621   -23.2317 C1            1 RES     
    1472 C1          65.5116   -28.0474   -22.6516 C1            1 RES     
    1473 H5          62.8383   -26.0355   -22.3411 H5            1 RES     
    1474 C0          58.0664   -26.8120   -26.2992 C0            1 RES     
    1475 C0          58.3710   -25.3441   -25.8151 C0            1 RES     
    1476 C0          58.0113   -24.4277   -27.0370 C0            1 RES     
    1477 C0          58.2797   -22.9260   -26.8789 C0            1 RES     
    1478 C0          57.8404   -22.1175   -28.1224 C0            1 RES     
    1479 C0          58.5757   -22.4548   -29.4383 C0            1 RES     
    1480 C0          60.1095   -22.3520   -29.3681 C0            1 RES     
    1481 C0          60.6015   -20.9591   -28.9362 C0            1 RES     
    1482 C0          62.1296   -20.8753   -28.8128 C0            1 RES     
    1483 C0          62.8546   -21.0132   -30.1623 C0            1 RES     
    1484 C0          64.3739   -20.8134   -30.0430 C0            1 RES     
    1485 C0          65.0618   -21.9024   -29.2188 C0            1 RES     
    1486 C0          57.7380   -24.8225   -24.4838 C0            1 RES     
    1487 C0          56.1889   -24.6698   -24.3847 C0            1 RES     
    1488 C0          55.6763   -25.5479   -23.2392 C0            1 RES     
    1489 C0          54.1762   -25.8163   -23.1579 C0            1 RES     
    1490 C0          53.3227   -24.7118   -22.5520 C0            1 RES     
    1491 C0          51.8621   -25.2087   -22.5236 C0            1 RES     
    1492 C0          50.8993   -24.2905   -21.7672 C0            1 RES     
    1493 C0          51.1765   -24.2719   -20.2625 C0            1 RES     
    1494 H6          57.0949   -26.7475   -26.7183 H6            1 RES     
    1495 H6          58.7825   -26.9541   -27.1399 H6            1 RES     
    1496 H6          59.4692   -25.2879   -25.6436 H6            1 RES     
    1497 H6          56.9318   -24.5439   -27.2769 H6            1 RES     
    1498 H6          58.5903   -24.7897   -27.9135 H6            1 RES     
    1499 H6          59.3523   -22.7517   -26.6576 H6            1 RES     
    1500 H6          57.6811   -22.5355   -26.0314 H6            1 RES     
    1501 H6          57.9804   -21.0395   -27.9000 H6            1 RES     
    1502 H6          56.7505   -22.2653   -28.2899 H6            1 RES     
    1503 H6          58.2027   -21.7651   -30.2280 H6            1 RES     
    1504 H6          58.3122   -23.4847   -29.7611 H6            1 RES     
    1505 H6          60.4956   -23.1156   -28.6604 H6            1 RES     
    1506 H6          60.5027   -22.5960   -30.3769 H6            1 RES     
    1507 H6          60.1974   -20.7333   -27.9284 H6            1 RES     
    1508 H6          60.2327   -20.1834   -29.6426 H6            1 RES     
    1509 H6          62.3774   -19.8784   -28.3874 H6            1 RES     
    1510 H6          62.4697   -21.6533   -28.0974 H6            1 RES     
    1511 H6          62.6593   -22.0055   -30.6191 H6            1 RES     
    1512 H6          62.4631   -20.2289   -30.8462 H6            1 RES     
    1513 H6          64.5895   -19.8171   -29.5989 H6            1 RES     
    1514 H6          64.8065   -20.8361   -31.0664 H6            1 RES     
    1515 H6          64.7100   -21.8970   -28.1675 H6            1 RES     
    1516 H6          64.8696   -22.9005   -29.6668 H6            1 RES     
    1517 H6          66.1570   -21.7212   -29.2120 H6            1 RES     
    1518 H6          58.1715   -23.8210   -24.2758 H6            1 RES     
    1519 H6          58.1367   -25.4345   -23.6466 H6            1 RES     
    1520 H6          55.9092   -23.6149   -24.1657 H6            1 RES     
    1521 H6          55.7151   -24.9608   -25.3442 H6            1 RES     
    1522 H6          56.0891   -25.2406   -22.2553 H6            1 RES     
    1523 H6          56.0801   -26.5109   -23.4693 H6            1 RES     
    1524 H6          53.8094   -26.0981   -24.1479 H6            1 RES     
    1525 H6          54.0525   -26.7047   -22.4976 H6            1 RES     
    1526 H6          53.7000   -24.5327   -21.5229 H6            1 RES     
    1527 H6          53.3986   -23.7718   -23.1384 H6            1 RES     
    1528 H6          51.5122   -25.3071   -23.5763 H6            1 RES     
    1529 H6          51.8030   -26.2174   -22.0550 H6            1 RES     
    1530 H6          49.8706   -24.6890   -21.9096 H6            1 RES     
    1531 H6          50.9389   -23.2626   -22.1850 H6            1 RES     
    1532 H6          52.1749   -23.8474   -20.0383 H6            1 RES     
    1533 H6          50.4128   -23.6500   -19.7529 H6            1 RES     
    1534 H6          51.1199   -25.3042   -19.8504 H6            1 RES     
    1535 C0          58.1070   -29.4187   -26.4849 C0            1 RES     
    1536 C0          57.6289   -29.4096   -28.0073 C0            1 RES     
    1537 C0          57.2755   -30.8917   -28.3687 C0            1 RES     
    1538 C0          57.0425   -31.1750   -29.8665 C0            1 RES     
    1539 C0          56.6748   -32.6376   -30.1727 C0            1 RES     
    1540 C0          57.7216   -33.6896   -29.7648 C0            1 RES     
    1541 C0          59.1376   -33.4503   -30.3147 C0            1 RES     
    1542 C0          59.1919   -33.3661   -31.8503 C0            1 RES     
    1543 C0          60.6128   -33.1216   -32.3836 C0            1 RES     
    1544 C0          61.5604   -34.3074   -32.1286 C0            1 RES     
    1545 C0          62.9443   -34.1184   -32.7692 C0            1 RES     
    1546 C0          63.7392   -32.9639   -32.1589 C0            1 RES     
    1547 C0          56.5752   -28.4009   -28.6312 C0            1 RES     
    1548 C0          55.0719   -28.4314   -28.2348 C0            1 RES     
    1549 C0          54.6801   -27.2489   -27.3306 C0            1 RES     
    1550 C0          53.2445   -27.2186   -26.8327 C0            1 RES     
    1551 C0          52.1688   -26.8605   -27.8484 C0            1 RES     
    1552 C0          50.8423   -26.7257   -27.0730 C0            1 RES     
    1553 C0          49.6671   -26.2165   -27.9095 C0            1 RES     
    1554 C0          49.8517   -24.7623   -28.3457 C0            1 RES     
    1555 H6          57.5971   -30.2577   -25.9567 H6            1 RES     
    1556 H6          59.1481   -29.8112   -26.5291 H6            1 RES     
    1557 H6          58.5529   -29.1434   -28.5708 H6            1 RES     
    1558 H6          56.3665   -31.1957   -27.8059 H6            1 RES     
    1559 H6          58.1173   -31.5333   -28.0301 H6            1 RES     
    1560 H6          57.9446   -30.8774   -30.4411 H6            1 RES     
    1561 H6          56.1798   -30.5896   -30.2392 H6            1 RES     
    1562 H6          56.4907   -32.7180   -31.2654 H6            1 RES     
    1563 H6          55.7165   -32.8875   -29.6666 H6            1 RES     
    1564 H6          57.3588   -34.6824   -30.1103 H6            1 RES     
    1565 H6          57.7852   -33.7328   -28.6565 H6            1 RES     
    1566 H6          59.5507   -32.5140   -29.8824 H6            1 RES     
    1567 H6          59.7640   -34.2932   -29.9582 H6            1 RES     
    1568 H6          58.5727   -32.5077   -32.1849 H6            1 RES     
    1569 H6          58.7753   -34.2924   -32.3020 H6            1 RES     
    1570 H6          60.5379   -32.9681   -33.4822 H6            1 RES     
    1571 H6          61.0109   -32.1899   -31.9286 H6            1 RES     
    1572 H6          61.6946   -34.4832   -31.0414 H6            1 RES     
    1573 H6          61.1036   -35.2168   -32.5765 H6            1 RES     
    1574 H6          62.8341   -33.9586   -33.8638 H6            1 RES     
    1575 H6          63.5255   -35.0526   -32.6129 H6            1 RES     
    1576 H6          63.2344   -31.9917   -32.3295 H6            1 RES     
    1577 H6          63.8726   -33.1243   -31.0678 H6            1 RES     
    1578 H6          64.7410   -32.9169   -32.6352 H6            1 RES     
    1579 H6          56.5948   -28.6133   -29.7159 H6            1 RES     
    1580 H6          56.9493   -27.3617   -28.6925 H6            1 RES     
    1581 H6          54.4749   -28.2785   -29.1608 H6            1 RES     
    1582 H6          54.7914   -29.4198   -27.8180 H6            1 RES     
    1583 H6          54.9281   -26.2844   -27.8293 H6            1 RES     
    1584 H6          55.2387   -27.2973   -26.4025 H6            1 RES     
    1585 H6          53.0052   -28.1704   -26.3105 H6            1 RES     
    1586 H6          53.2166   -26.3903   -26.1057 H6            1 RES     
    1587 H6          52.4500   -25.8915   -28.3123 H6            1 RES     
    1588 H6          52.0888   -27.6355   -28.6390 H6            1 RES     
    1589 H6          50.5820   -27.7249   -26.6596 H6            1 RES     
    1590 H6          50.9669   -26.0283   -26.2127 H6            1 RES     
    1591 H6          48.7608   -26.2588   -27.2663 H6            1 RES     
    1592 H6          49.5103   -26.8738   -28.7876 H6            1 RES     
    1593 H6          50.7187   -24.6502   -29.0265 H6            1 RES     
    1594 H6          48.9424   -24.4229   -28.8829 H6            1 RES     
    1595 H6          49.9991   -24.1095   -27.4574 H6            1 RES     
    1596 C0          70.9018   -27.4642   -23.0791 C0            1 RES     
    1597 C1          69.4559   -27.7048   -22.5922 C1            1 RES     
    1598 C1          69.4133   -28.3295   -21.3868 C1            1 RES     
    1599 S2          67.8610   -28.6881   -20.8727 S2            1 RES     
    1600 C1          67.1725   -28.0478   -22.2894 C1            1 RES     
    1601 C1          68.1710   -27.5666   -23.1433 C1            1 RES     
    1602 C1          70.7340   -28.5964   -20.9656 C1            1 RES     
    1603 C1          71.6018   -28.1997   -21.9354 C1            1 RES     
    1604 C1          72.9130   -28.5621   -21.6514 C1            1 RES     
    1605 C1          72.9880   -29.2143   -20.4091 C1            1 RES     
    1606 S2          71.4617   -29.3589   -19.6789 S2            1 RES     
    1607 H3          67.9408   -27.1923   -24.1227 H3            1 RES     
    1608 H3          73.7578   -28.3714   -22.3024 H3            1 RES     
    1609 N4          75.8440   -29.9426   -18.0932 N4            1 RES     
    1610 C1          74.7560   -29.3304   -18.6461 C1            1 RES     
    1611 C1          74.1777   -29.8259   -19.8276 C1            1 RES     
    1612 C1          74.7328   -30.9705   -20.4026 C1            1 RES     
    1613 N4          74.2370   -31.5833   -21.5081 N4            1 RES     
    1614 S2          75.2431   -32.8848   -21.6684 S2            1 RES     
    1615 N4          76.2983   -32.7266   -20.4036 N4            1 RES     
    1616 C1          75.8504   -31.5990   -19.7983 C1            1 RES     
    1617 C1          76.4051   -31.0564   -18.6422 C1            1 RES     
    1618 H5          74.3426   -28.4463   -18.1687 H5            1 RES     
    1619 C0          71.4637   -26.0004   -23.1455 C0            1 RES     
    1620 C0          71.8708   -25.0113   -21.9889 C0            1 RES     
    1621 C0          72.2322   -23.6654   -22.7102 C0            1 RES     
    1622 C0          72.7425   -22.5211   -21.8256 C0            1 RES     
    1623 C0          73.0174   -21.2319   -22.6350 C0            1 RES     
    1624 C0          74.1154   -21.3376   -23.7162 C0            1 RES     
    1625 C0          75.4799   -21.8350   -23.2075 C0            1 RES     
    1626 C0          76.0582   -20.9613   -22.0801 C0            1 RES     
    1627 C0          77.3926   -21.4915   -21.5362 C0            1 RES     
    1628 C0          78.5387   -21.4096   -22.5585 C0            1 RES     
    1629 C0          79.8924   -21.8349   -21.9679 C0            1 RES     
    1630 C0          79.9419   -23.3125   -21.5777 C0            1 RES     
    1631 C0          70.8989   -24.7891   -20.7843 C0            1 RES     
    1632 C0          69.5110   -24.1240   -21.0372 C0            1 RES     
    1633 C0          68.4093   -25.0908   -20.5925 C0            1 RES     
    1634 C0          66.9788   -24.8011   -21.0382 C0            1 RES     
    1635 C0          66.2239   -23.7438   -20.2460 C0            1 RES     
    1636 C0          64.7986   -23.6478   -20.8297 C0            1 RES     
    1637 C0          63.8458   -22.7634   -20.0223 C0            1 RES     
    1638 C0          63.5070   -23.3691   -18.6586 C0            1 RES     
    1639 H6          70.7751   -25.4438   -23.7284 H6            1 RES     
    1640 H6          72.4013   -26.0948   -23.7385 H6            1 RES     
    1641 H6          72.7964   -25.4244   -21.5292 H6            1 RES     
    1642 H6          71.3368   -23.2873   -23.2504 H6            1 RES     
    1643 H6          73.0128   -23.8872   -23.4691 H6            1 RES     
    1644 H6          73.6518   -22.8400   -21.2767 H6            1 RES     
    1645 H6          71.9621   -22.2575   -21.0836 H6            1 RES     
    1646 H6          73.2939   -20.4288   -21.9209 H6            1 RES     
    1647 H6          72.0774   -20.9023   -23.1305 H6            1 RES     
    1648 H6          74.2451   -20.3321   -24.1752 H6            1 RES     
    1649 H6          73.7787   -22.0191   -24.5264 H6            1 RES     
    1650 H6          75.3777   -22.8808   -22.8485 H6            1 RES     
    1651 H6          76.1727   -21.8410   -24.0745 H6            1 RES     
    1652 H6          75.3520   -20.9667   -21.2250 H6            1 RES     
    1653 H6          76.1780   -19.9119   -22.4280 H6            1 RES     
    1654 H6          77.6677   -20.8682   -20.6575 H6            1 RES     
    1655 H6          77.2430   -22.5354   -21.1891 H6            1 RES     
    1656 H6          78.3237   -22.0373   -23.4481 H6            1 RES     
    1657 H6          78.6313   -20.3521   -22.8894 H6            1 RES     
    1658 H6          80.1314   -21.2067   -21.0821 H6            1 RES     
    1659 H6          80.6752   -21.6591   -22.7370 H6            1 RES     
    1660 H6          79.2165   -23.5425   -20.7714 H6            1 RES     
    1661 H6          79.7249   -23.9494   -22.4614 H6            1 RES     
    1662 H6          80.9571   -23.5596   -21.2025 H6            1 RES     
    1663 H6          71.4262   -24.1546   -20.0401 H6            1 RES     
    1664 H6          70.7908   -25.7533   -20.2429 H6            1 RES     
    1665 H6          69.4090   -23.1859   -20.4466 H6            1 RES     
    1666 H6          69.4000   -23.8700   -22.1109 H6            1 RES     
    1667 H6          68.4598   -25.3167   -19.5065 H6            1 RES     
    1668 H6          68.6468   -25.9910   -21.1184 H6            1 RES     
    1669 H6          66.9774   -24.5679   -22.1057 H6            1 RES     
    1670 H6          66.4124   -25.7515   -20.9097 H6            1 RES     
    1671 H6          66.1965   -24.0831   -19.1888 H6            1 RES     
    1672 H6          66.7299   -22.7568   -20.3006 H6            1 RES     
    1673 H6          64.8776   -23.2406   -21.8633 H6            1 RES     
    1674 H6          64.3385   -24.6595   -20.9022 H6            1 RES     
    1675 H6          62.8951   -22.6816   -20.5937 H6            1 RES     
    1676 H6          64.2728   -21.7454   -19.9029 H6            1 RES     
    1677 H6          64.4044   -23.4457   -18.0135 H6            1 RES     
    1678 H6          62.7631   -22.7283   -18.1432 H6            1 RES     
    1679 H6          63.0660   -24.3826   -18.7892 H6            1 RES     
    1680 C0          70.9952   -28.2028   -24.4725 C0            1 RES     
    1681 C0          71.1678   -27.4934   -25.8913 C0            1 RES     
    1682 C0          70.6657   -28.5193   -26.9627 C0            1 RES     
    1683 C0          70.9827   -28.1608   -28.4286 C0            1 RES     
    1684 C0          70.4506   -29.1837   -29.4478 C0            1 RES     
    1685 C0          70.9919   -30.6170   -29.3014 C0            1 RES     
    1686 C0          72.5248   -30.7388   -29.2904 C0            1 RES     
    1687 C0          73.1944   -30.1551   -30.5470 C0            1 RES     
    1688 C0          74.7263   -30.2801   -30.5181 C0            1 RES     
    1689 C0          75.2095   -31.7397   -30.5886 C0            1 RES     
    1690 C0          76.7382   -31.8619   -30.6860 C0            1 RES     
    1691 C0          77.4641   -31.3669   -29.4350 C0            1 RES     
    1692 C0          70.6954   -26.0203   -26.2432 C0            1 RES     
    1693 C0          69.1911   -25.6329   -26.3135 C0            1 RES     
    1694 C0          68.7486   -24.7805   -25.1107 C0            1 RES     
    1695 C0          67.2783   -24.4006   -25.0492 C0            1 RES     
    1696 C0          66.7958   -23.3459   -26.0352 C0            1 RES     
    1697 C0          65.3373   -23.0116   -25.6612 C0            1 RES     
    1698 C0          64.7292   -21.8520   -26.4522 C0            1 RES     
    1699 C0          65.3873   -20.5126   -26.1177 C0            1 RES     
    1700 H6          70.1469   -28.9234   -24.5356 H6            1 RES     
    1701 H6          71.8550   -28.9080   -24.4146 H6            1 RES     
    1702 H6          72.2727   -27.4071   -26.0089 H6            1 RES     
    1703 H6          69.5661   -28.6435   -26.8590 H6            1 RES     
    1704 H6          71.1423   -29.4990   -26.7435 H6            1 RES     
    1705 H6          72.0794   -28.0355   -28.5471 H6            1 RES     
    1706 H6          70.4884   -27.2102   -28.7078 H6            1 RES     
    1707 H6          70.6971   -28.8079   -30.4638 H6            1 RES     
    1708 H6          69.3410   -29.2234   -29.3809 H6            1 RES     
    1709 H6          70.5836   -31.2222   -30.1402 H6            1 RES     
    1710 H6          70.6042   -31.0607   -28.3596 H6            1 RES     
    1711 H6          72.9314   -30.2309   -28.3899 H6            1 RES     
    1712 H6          72.7573   -31.8197   -29.2035 H6            1 RES     
    1713 H6          72.9632   -29.0710   -30.6062 H6            1 RES     
    1714 H6          72.7945   -30.6464   -31.4602 H6            1 RES     
    1715 H6          75.1245   -29.7402   -31.4047 H6            1 RES     
    1716 H6          75.1096   -29.7784   -29.6042 H6            1 RES     
    1717 H6          74.8638   -32.3167   -29.7062 H6            1 RES     
    1718 H6          74.7759   -32.2031   -31.5016 H6            1 RES     
    1719 H6          77.1047   -31.3050   -31.5756 H6            1 RES     
    1720 H6          76.9887   -32.9360   -30.8230 H6            1 RES     
    1721 H6          77.2958   -30.2831   -29.2730 H6            1 RES     
    1722 H6          77.1196   -31.9316   -28.5425 H6            1 RES     
    1723 H6          78.5558   -31.5286   -29.5568 H6            1 RES     
    1724 H6          71.0914   -25.8359   -27.2587 H6            1 RES     
    1725 H6          71.2837   -25.2385   -25.7272 H6            1 RES     
    1726 H6          69.0554   -24.9620   -27.1903 H6            1 RES     
    1727 H6          68.5581   -26.5281   -26.4791 H6            1 RES     
    1728 H6          69.3792   -23.8658   -25.0343 H6            1 RES     
    1729 H6          68.8723   -25.3479   -24.1950 H6            1 RES     
    1730 H6          66.6489   -25.3157   -25.0975 H6            1 RES     
    1731 H6          67.1516   -23.9262   -24.0621 H6            1 RES     
    1732 H6          67.4436   -22.4515   -25.9184 H6            1 RES     
    1733 H6          66.8630   -23.7128   -27.0806 H6            1 RES     
    1734 H6          64.7213   -23.9224   -25.8292 H6            1 RES     
    1735 H6          65.2654   -22.7523   -24.5798 H6            1 RES     
    1736 H6          63.6583   -21.7789   -26.1609 H6            1 RES     
    1737 H6          64.7881   -22.0588   -27.5392 H6            1 RES     
    1738 H6          66.4533   -20.4980   -26.4198 H6            1 RES     
    1739 H6          64.8615   -19.7005   -26.6606 H6            1 RES     
    1740 H6          65.3150   -20.3098   -25.0265 H6            1 RES     
    1741 C0          81.5142   -32.3795   -17.3286 C0            1 RES     
    1742 C1          79.9790   -32.2259   -17.4018 C1            1 RES     
    1743 C1          79.3295   -33.1668   -16.6681 C1            1 RES     
    1744 S2          77.6626   -33.0856   -16.7995 S2            1 RES     
    1745 C1          77.7457   -31.7904   -17.8979 C1            1 RES     
    1746 C1          79.0788   -31.4453   -18.1460 C1            1 RES     
    1747 C1          80.2841   -34.0268   -16.0835 C1            1 RES     
    1748 C1          81.5273   -33.6668   -16.5029 C1            1 RES     
    1749 C1          82.5061   -34.5583   -16.0807 C1            1 RES     
    1750 C1          81.9411   -35.5787   -15.2973 C1            1 RES     
    1751 S2          80.2600   -35.3969   -15.1408 S2            1 RES     
    1752 H3          79.3404   -30.6990   -18.8719 H3            1 RES     
    1753 H3          83.5579   -34.4780   -16.3278 H3            1 RES     
    1754 N4          83.4206   -38.0549   -12.9036 N4            1 RES     
    1755 C1          82.8019   -36.9364   -13.3834 C1            1 RES     
    1756 C1          82.6395   -36.7440   -14.7663 C1            1 RES     
    1757 C1          83.1071   -37.7373   -15.6286 C1            1 RES     
    1758 N4          82.9625   -37.7028   -16.9782 N4            1 RES     
    1759 S2          83.6352   -39.1403   -17.4397 S2            1 RES     
    1760 N4          84.1159   -39.8276   -16.0132 N4            1 RES     
    1761 C1          83.7284   -38.8986   -15.1046 C1            1 RES     
    1762 C1          83.8902   -39.0328   -13.7282 C1            1 RES     
    1763 H5          82.4414   -36.1862   -12.6848 H5            1 RES     
    1764 C0          82.3661   -31.2978   -16.5756 C0            1 RES     
    1765 C0          82.4948   -30.9926   -15.0354 C0            1 RES     
    1766 C0          83.3987   -29.7129   -14.9465 C0            1 RES     
    1767 C0          83.7607   -29.2172   -13.5410 C0            1 RES     
    1768 C0          84.6093   -27.9243   -13.5754 C0            1 RES     
    1769 C0          85.9903   -28.0440   -14.2568 C0            1 RES     
    1770 C0          86.8986   -29.1495   -13.6902 C0            1 RES     
    1771 C0          87.1661   -28.9965   -12.1824 C0            1 RES     
    1772 C0          88.0264   -30.1314   -11.6085 C0            1 RES     
    1773 C0          89.4689   -30.1270   -12.1422 C0            1 RES     
    1774 C0          90.3514   -31.1946   -11.4760 C0            1 RES     
    1775 C0          89.9151   -32.6241   -11.7989 C0            1 RES     
    1776 C0          81.2037   -30.8610   -14.1631 C0            1 RES     
    1777 C0          80.2113   -29.6905   -14.4419 C0            1 RES     
    1778 C0          78.8391   -30.2758   -14.7893 C0            1 RES     
    1779 C0          77.8012   -29.3474   -15.4134 C0            1 RES     
    1780 C0          77.0506   -28.4314   -14.4579 C0            1 RES     
    1781 C0          76.0286   -27.6244   -15.2859 C0            1 RES     
    1782 C0          75.0571   -26.7906   -14.4475 C0            1 RES     
    1783 C0          74.0854   -27.6612   -13.6481 C0            1 RES     
    1784 H6          82.1034   -30.3632   -17.0012 H6            1 RES     
    1785 H6          83.4149   -31.5179   -16.8777 H6            1 RES     
    1786 H6          83.0492   -31.8474   -14.5876 H6            1 RES     
    1787 H6          82.8951   -28.8714   -15.4708 H6            1 RES     
    1788 H6          84.3441   -29.9280   -15.4889 H6            1 RES     
    1789 H6          84.2864   -30.0156   -12.9788 H6            1 RES     
    1790 H6          82.8312   -28.9601   -12.9940 H6            1 RES     
    1791 H6          84.7539   -27.5788   -12.5309 H6            1 RES     
    1792 H6          84.0375   -27.1239   -14.0953 H6            1 RES     
    1793 H6          86.5090   -27.0643   -14.1591 H6            1 RES     
    1794 H6          85.8566   -28.2293   -15.3440 H6            1 RES     
    1795 H6          86.4348   -30.1396   -13.8841 H6            1 RES     
    1796 H6          87.8559   -29.1088   -14.2502 H6            1 RES     
    1797 H6          86.1989   -29.0380   -11.6412 H6            1 RES     
    1798 H6          87.6421   -28.0135   -11.9727 H6            1 RES     
    1799 H6          88.0654   -29.9975   -10.5054 H6            1 RES     
    1800 H6          87.5255   -31.0984   -11.8242 H6            1 RES     
    1801 H6          89.4869   -30.2829   -13.2407 H6            1 RES     
    1802 H6          89.9157   -29.1331   -11.9215 H6            1 RES     
    1803 H6          90.3564   -31.0458   -10.3741 H6            1 RES     
    1804 H6          91.3910   -31.0636   -11.8466 H6            1 RES     
    1805 H6          88.9002   -32.8358   -11.4060 H6            1 RES     
    1806 H6          89.9271   -32.7892   -12.8973 H6            1 RES     
    1807 H6          90.6194   -33.3392   -11.3246 H6            1 RES     
    1808 H6          81.5231   -30.7634   -13.1035 H6            1 RES     
    1809 H6          80.6812   -31.8415   -14.1663 H6            1 RES     
    1810 H6          80.0964   -29.0470   -13.5409 H6            1 RES     
    1811 H6          80.5898   -29.0592   -15.2713 H6            1 RES     
    1812 H6          78.4081   -30.8650   -13.9526 H6            1 RES     
    1813 H6          79.0580   -30.9586   -15.5825 H6            1 RES     
    1814 H6          78.2705   -28.7763   -16.2182 H6            1 RES     
    1815 H6          77.0345   -30.0053   -15.8825 H6            1 RES     
    1816 H6          76.5362   -29.0800   -13.7175 H6            1 RES     
    1817 H6          77.7425   -27.7453   -13.9252 H6            1 RES     
    1818 H6          76.5948   -26.9443   -15.9619 H6            1 RES     
    1819 H6          75.4222   -28.3048   -15.9262 H6            1 RES     
    1820 H6          74.4507   -26.1740   -15.1471 H6            1 RES     
    1821 H6          75.6170   -26.1089   -13.7733 H6            1 RES     
    1822 H6          74.6164   -28.2792   -12.8975 H6            1 RES     
    1823 H6          73.3610   -27.0133   -13.1141 H6            1 RES     
    1824 H6          73.5184   -28.3300   -14.3337 H6            1 RES     
    1825 C0          81.9806   -32.5699   -18.8259 C0            1 RES     
    1826 C0          82.8486   -31.5298   -19.6690 C0            1 RES     
    1827 C0          82.5934   -31.8617   -21.1780 C0            1 RES     
    1828 C0          83.5310   -31.1612   -22.1822 C0            1 RES     
    1829 C0          83.2292   -31.4975   -23.6532 C0            1 RES     
    1830 C0          83.3375   -32.9846   -24.0349 C0            1 RES     
    1831 C0          84.6746   -33.6552   -23.6785 C0            1 RES     
    1832 C0          85.8948   -32.9618   -24.3097 C0            1 RES     
    1833 C0          87.2234   -33.6410   -23.9397 C0            1 RES     
    1834 C0          87.3590   -35.0546   -24.5334 C0            1 RES     
    1835 C0          88.7348   -35.6865   -24.2708 C0            1 RES     
    1836 C0          89.0016   -35.9574   -22.7900 C0            1 RES     
    1837 C0          82.8912   -29.9625   -19.4265 C0            1 RES     
    1838 C0          81.6617   -29.0525   -19.7058 C0            1 RES     
    1839 C0          80.9836   -28.5699   -18.4110 C0            1 RES     
    1840 C0          79.7311   -27.7243   -18.5724 C0            1 RES     
    1841 C0          79.9209   -26.2956   -19.0622 C0            1 RES     
    1842 C0          78.5462   -25.6017   -18.9749 C0            1 RES     
    1843 C0          78.5706   -24.1037   -19.2840 C0            1 RES     
    1844 C0          79.3236   -23.3034   -18.2202 C0            1 RES     
    1845 H6          81.0884   -32.8599   -19.4283 H6            1 RES     
    1846 H6          82.5692   -33.5142   -18.8700 H6            1 RES     
    1847 H6          83.9002   -31.8194   -19.4403 H6            1 RES     
    1848 H6          81.5436   -31.6019   -21.4343 H6            1 RES     
    1849 H6          82.7158   -32.9583   -21.3094 H6            1 RES     
    1850 H6          84.5843   -31.4138   -21.9387 H6            1 RES     
    1851 H6          83.4099   -30.0624   -22.1197 H6            1 RES     
    1852 H6          83.9313   -30.9119   -24.2845 H6            1 RES     
    1853 H6          82.2037   -31.1485   -23.9052 H6            1 RES     
    1854 H6          83.1681   -33.0678   -25.1308 H6            1 RES     
    1855 H6          82.5235   -33.5515   -23.5346 H6            1 RES     
    1856 H6          84.7968   -33.6768   -22.5744 H6            1 RES     
    1857 H6          84.6087   -34.7043   -24.0324 H6            1 RES     
    1858 H6          85.9518   -31.9202   -23.9305 H6            1 RES     
    1859 H6          85.7873   -32.9240   -25.4154 H6            1 RES     
    1860 H6          88.0463   -33.0140   -24.3467 H6            1 RES     
    1861 H6          87.3181   -33.6640   -22.8333 H6            1 RES     
    1862 H6          86.5763   -35.7314   -24.1331 H6            1 RES     
    1863 H6          87.2275   -34.9803   -25.6350 H6            1 RES     
    1864 H6          89.5345   -35.0321   -24.6809 H6            1 RES     
    1865 H6          88.7743   -36.6587   -24.8077 H6            1 RES     
    1866 H6          89.0280   -35.0155   -22.2058 H6            1 RES     
    1867 H6          88.2188   -36.6275   -22.3752 H6            1 RES     
    1868 H6          89.9882   -36.4549   -22.6807 H6            1 RES     
    1869 H6          83.6841   -29.5972   -20.1046 H6            1 RES     
    1870 H6          83.3872   -29.6811   -18.4785 H6            1 RES     
    1871 H6          82.0332   -28.1200   -20.1851 H6            1 RES     
    1872 H6          80.9633   -29.5366   -20.4180 H6            1 RES     
    1873 H6          81.7193   -28.0372   -17.7666 H6            1 RES     
    1874 H6          80.6090   -29.4219   -17.8547 H6            1 RES     
    1875 H6          78.9854   -28.2675   -19.1927 H6            1 RES     
    1876 H6          79.3358   -27.6094   -17.5497 H6            1 RES     
    1877 H6          80.6516   -25.8006   -18.3881 H6            1 RES     
    1878 H6          80.3098   -26.2756   -20.1016 H6            1 RES     
    1879 H6          77.8604   -26.1048   -19.6918 H6            1 RES     
    1880 H6          78.1151   -25.7253   -17.9546 H6            1 RES     
    1881 H6          77.5165   -23.7490   -19.2836 H6            1 RES     
    1882 H6          79.0038   -23.9281   -20.2886 H6            1 RES     
    1883 H6          80.3970   -23.5769   -18.1915 H6            1 RES     
    1884 H6          79.2472   -22.2216   -18.4535 H6            1 RES     
    1885 H6          78.8758   -23.4790   -17.2174 H6            1 RES     
    1886 C0          87.6426   -42.5017   -11.8668 C0            1 RES     
    1887 C1          86.3349   -41.7813   -12.2624 C1            1 RES     
    1888 C1          85.2588   -42.6098   -12.2332 C1            1 RES     
    1889 S2          83.8402   -41.8836   -12.7457 S2            1 RES     
    1890 C1          84.6323   -40.4154   -13.0741 C1            1 RES     
    1891 C1          85.9962   -40.5199   -12.7798 C1            1 RES     
    1892 C1          85.6910   -43.9046   -11.8735 C1            1 RES     
    1893 C1          87.0451   -43.9041   -11.7419 C1            1 RES     
    1894 C1          87.5558   -45.1788   -11.5287 C1            1 RES     
    1895 C1          86.5179   -46.1242   -11.4708 C1            1 RES     
    1896 S2          84.9961   -45.4054   -11.6962 S2            1 RES     
    1897 H3          86.6799   -39.7201   -12.9922 H3            1 RES     
    1898 H3          88.6095   -45.4094   -11.4270 H3            1 RES     
    1899 N4          86.3509   -49.6329   -10.1627 N4            1 RES     
    1900 C1          86.2346   -48.2741   -10.2278 C1            1 RES     
    1901 C1          86.6748   -47.5702   -11.3621 C1            1 RES     
    1902 C1          87.2106   -48.3014   -12.4238 C1            1 RES     
    1903 N4          87.6187   -47.7520   -13.5965 N4            1 RES     
    1904 S2          88.0818   -49.0807   -14.4637 S2            1 RES     
    1905 N4          87.7990   -50.3437   -13.4326 N4            1 RES     
    1906 C1          87.3023   -49.7135   -12.3396 C1            1 RES     
    1907 C1          86.8770   -50.3646   -11.1847 C1            1 RES     
    1908 H5          85.8049   -47.7355    -9.3877 H5            1 RES     
    1909 C0          88.3473   -42.1398   -10.5121 C0            1 RES     
    1910 C0          87.9256   -42.4558    -9.0274 C0            1 RES     
    1911 C0          88.9811   -41.7122    -8.1356 C0            1 RES     
    1912 C0          88.8626   -41.9026    -6.6184 C0            1 RES     
    1913 C0          89.9201   -41.0847    -5.8402 C0            1 RES     
    1914 C0          91.3938   -41.4585    -6.1128 C0            1 RES     
    1915 C0          91.7375   -42.9421    -5.8917 C0            1 RES     
    1916 C0          91.4185   -43.4293    -4.4671 C0            1 RES     
    1917 C0          91.7099   -44.9233    -4.2657 C0            1 RES     
    1918 C0          93.2080   -45.2635    -4.3402 C0            1 RES     
    1919 C0          93.4980   -46.7393    -4.0238 C0            1 RES     
    1920 C0          92.9184   -47.7027    -5.0603 C0            1 RES     
    1921 C0          86.4599   -42.1707    -8.5632 C0            1 RES     
    1922 C0          85.9426   -40.6996    -8.5315 C0            1 RES     
    1923 C0          84.7243   -40.5824    -9.4525 C0            1 RES     
    1924 C0          84.2482   -39.1844    -9.8367 C0            1 RES     
    1925 C0          83.4062   -38.4485    -8.8048 C0            1 RES     
    1926 C0          82.9976   -37.0907    -9.4136 C0            1 RES     
    1927 C0          81.9860   -36.3043    -8.5766 C0            1 RES     
    1928 C0          80.6120   -36.9768    -8.5441 C0            1 RES     
    1929 H6          88.4869   -41.0890   -10.5210 H6            1 RES     
    1930 H6          89.3534   -42.6097   -10.5940 H6            1 RES     
    1931 H6          88.0554   -43.5522    -8.8871 H6            1 RES     
    1932 H6          88.9237   -40.6196    -8.3339 H6            1 RES     
    1933 H6          89.9903   -42.0569    -8.4472 H6            1 RES     
    1934 H6          88.9345   -42.9793    -6.3625 H6            1 RES     
    1935 H6          87.8751   -41.5292    -6.2797 H6            1 RES     
    1936 H6          89.7159   -41.2004    -4.7557 H6            1 RES     
    1937 H6          89.7910   -40.0041    -6.0711 H6            1 RES     
    1938 H6          92.0355   -40.8360    -5.4502 H6            1 RES     
    1939 H6          91.6600   -41.1937    -7.1584 H6            1 RES     
    1940 H6          91.1801   -43.5605    -6.6266 H6            1 RES     
    1941 H6          92.8208   -43.0641    -6.0995 H6            1 RES     
    1942 H6          90.3335   -43.2980    -4.2783 H6            1 RES     
    1943 H6          91.9789   -42.8271    -3.7188 H6            1 RES     
    1944 H6          91.3415   -45.2033    -3.2547 H6            1 RES     
    1945 H6          91.1331   -45.5006    -5.0185 H6            1 RES     
    1946 H6          93.6206   -45.0250    -5.3423 H6            1 RES     
    1947 H6          93.7405   -44.6449    -3.5852 H6            1 RES     
    1948 H6          93.1030   -46.9936    -3.0160 H6            1 RES     
    1949 H6          94.6004   -46.8789    -4.0077 H6            1 RES     
    1950 H6          91.8113   -47.6496    -5.0874 H6            1 RES     
    1951 H6          93.3235   -47.4700    -6.0680 H6            1 RES     
    1952 H6          93.2026   -48.7425    -4.7947 H6            1 RES     
    1953 H6          86.3508   -42.5698    -7.5320 H6            1 RES     
    1954 H6          85.7774   -42.8252    -9.1465 H6            1 RES     
    1955 H6          85.6291   -40.4132    -7.5026 H6            1 RES     
    1956 H6          86.7458   -40.0062    -8.8536 H6            1 RES     
    1957 H6          83.8807   -41.2228    -9.1190 H6            1 RES     
    1958 H6          85.0796   -40.9782   -10.3800 H6            1 RES     
    1959 H6          85.1095   -38.5847   -10.1412 H6            1 RES     
    1960 H6          83.6022   -39.3097   -10.7353 H6            1 RES     
    1961 H6          82.5128   -39.0764    -8.6021 H6            1 RES     
    1962 H6          83.9669   -38.2935    -7.8588 H6            1 RES     
    1963 H6          83.9190   -36.4768    -9.5335 H6            1 RES     
    1964 H6          82.5566   -37.2349   -10.4262 H6            1 RES     
    1965 H6          81.8558   -35.3077    -9.0530 H6            1 RES     
    1966 H6          82.3724   -36.1538    -7.5466 H6            1 RES     
    1967 H6          80.6546   -37.9647    -8.0446 H6            1 RES     
    1968 H6          79.8993   -36.3364    -7.9859 H6            1 RES     
    1969 H6          80.2267   -37.1098    -9.5797 H6            1 RES     
    1970 C0          88.6043   -42.3195   -13.1068 C0            1 RES     
    1971 C0          89.9404   -41.4474   -13.1271 C0            1 RES     
    1972 C0          90.2312   -41.1188   -14.6304 C0            1 RES     
    1973 C0          91.6175   -40.5101   -14.9234 C0            1 RES     
    1974 C0          91.8508   -40.1814   -16.4086 C0            1 RES     
    1975 C0          91.7677   -41.3737   -17.3783 C0            1 RES     
    1976 C0          92.6729   -42.5661   -17.0271 C0            1 RES     
    1977 C0          94.1635   -42.1959   -16.9313 C0            1 RES     
    1978 C0          95.0539   -43.3973   -16.5747 C0            1 RES     
    1979 C0          95.0947   -44.4628   -17.6847 C0            1 RES     
    1980 C0          96.0799   -45.6035   -17.3857 C0            1 RES     
    1981 C0          95.6771   -46.4472   -16.1762 C0            1 RES     
    1982 C0          90.2306   -40.1930   -12.2002 C0            1 RES     
    1983 C0          89.4442   -38.8598   -12.3490 C0            1 RES     
    1984 C0          88.4377   -38.6422   -11.2050 C0            1 RES     
    1985 C0          87.5703   -37.3971   -11.2887 C0            1 RES     
    1986 C0          88.2484   -36.0630   -11.0100 C0            1 RES     
    1987 C0          87.1406   -34.9902   -10.9823 C0            1 RES     
    1988 C0          87.6156   -33.5982   -10.5616 C0            1 RES     
    1989 C0          88.0477   -33.5506    -9.0953 C0            1 RES     
    1990 H6          87.9799   -42.0347   -13.9854 H6            1 RES     
    1991 H6          88.9379   -43.3355   -13.4172 H6            1 RES     
    1992 H6          90.7253   -42.1619   -12.7873 H6            1 RES     
    1993 H6          89.4521   -40.4212   -15.0068 H6            1 RES     
    1994 H6          90.1491   -42.0656   -15.2064 H6            1 RES     
    1995 H6          92.4063   -41.1984   -14.5539 H6            1 RES     
    1996 H6          91.7283   -39.5381   -14.4049 H6            1 RES     
    1997 H6          92.8549   -39.7144   -16.4975 H6            1 RES     
    1998 H6          91.1114   -39.4170   -16.7345 H6            1 RES     
    1999 H6          92.0280   -41.0046   -18.3944 H6            1 RES     
    2000 H6          90.7191   -41.7382   -17.4219 H6            1 RES     
    2001 H6          92.3441   -43.0112   -16.0638 H6            1 RES     
    2002 H6          92.5205   -43.3258   -17.8207 H6            1 RES     
    2003 H6          94.2964   -41.4481   -16.1218 H6            1 RES     
    2004 H6          94.5098   -41.7416   -17.8848 H6            1 RES     
    2005 H6          96.0872   -43.0164   -16.4220 H6            1 RES     
    2006 H6          94.6993   -43.8344   -15.6172 H6            1 RES     
    2007 H6          94.0890   -44.8991   -17.8550 H6            1 RES     
    2008 H6          95.4261   -43.9696   -18.6245 H6            1 RES     
    2009 H6          97.0997   -45.1894   -17.2295 H6            1 RES     
    2010 H6          96.1104   -46.2722   -18.2729 H6            1 RES     
    2011 H6          95.6801   -45.8453   -15.2452 H6            1 RES     
    2012 H6          94.6670   -46.8828   -16.3311 H6            1 RES     
    2013 H6          96.4047   -47.2763   -16.0492 H6            1 RES     
    2014 H6          91.2855   -39.9334   -12.4049 H6            1 RES     
    2015 H6          90.3637   -40.4593   -11.1348 H6            1 RES     
    2016 H6          90.1706   -38.0247   -12.2383 H6            1 RES     
    2017 H6          88.9929   -38.7760   -13.3584 H6            1 RES     
    2018 H6          88.9597   -38.6744   -10.2218 H6            1 RES     
    2019 H6          87.6963   -39.4333   -11.2146 H6            1 RES     
    2020 H6          87.0276   -37.3787   -12.2587 H6            1 RES     
    2021 H6          86.8416   -37.5066   -10.4687 H6            1 RES     
    2022 H6          88.7459   -36.1362   -10.0198 H6            1 RES     
    2023 H6          89.0078   -35.8289   -11.7848 H6            1 RES     
    2024 H6          86.6983   -34.9257   -12.0008 H6            1 RES     
    2025 H6          86.3281   -35.2918   -10.2817 H6            1 RES     
    2026 H6          86.7530   -32.9058   -10.6773 H6            1 RES     
    2027 H6          88.4355   -33.2579   -11.2247 H6            1 RES     
    2028 H6          88.9341   -34.1901    -8.9129 H6            1 RES     
    2029 H6          88.3107   -32.5074    -8.8248 H6            1 RES     
    2030 H6          87.2156   -33.8850    -8.4375 H6            1 RES     
    2031 C0          88.7279   -55.3795   -10.1831 C0            1 RES     
    2032 C1          87.8753   -54.1413   -10.5375 C1            1 RES     
    2033 C1          86.7196   -54.4729   -11.1697 C1            1 RES     
    2034 S2          85.8152   -53.1486   -11.6501 S2            1 RES     
    2035 C1          86.9765   -52.0570   -11.0581 C1            1 RES     
    2036 C1          88.0555   -52.7486   -10.4966 C1            1 RES     
    2037 C1          86.6775   -55.8741   -11.3355 C1            1 RES     
    2038 C1          87.8349   -56.4152   -10.8679 C1            1 RES     
    2039 C1          87.9246   -57.7772   -11.1288 C1            1 RES     
    2040 C1          86.7659   -58.2336   -11.7795 C1            1 RES     
    2041 S2          85.6550   -56.9772   -12.0456 S2            1 RES     
    2042 H3          88.9264   -52.2348   -10.1364 H3            1 RES     
    2043 H3          88.7743   -58.3976   -10.8700 H3            1 RES     
    2044 N4          85.3262   -61.6557   -12.2957 N4            1 RES     
    2045 C1          85.5490   -60.4168   -11.7670 C1            1 RES     
    2046 C1          86.5430   -59.5778   -12.2999 C1            1 RES     
    2047 C1          87.2758   -60.0387   -13.3951 C1            1 RES     
    2048 N4          88.2220   -59.3081   -14.0390 N4            1 RES     
    2049 S2          88.6814   -60.3257   -15.2578 S2            1 RES     
    2050 N4          87.7445   -61.6697   -15.0246 N4            1 RES     
    2051 C1          87.0119   -61.3212   -13.9381 C1            1 RES     
    2052 C1          86.0347   -62.1272   -13.3599 C1            1 RES     
    2053 H5          84.9550   -60.0846   -10.9200 H5            1 RES     
    2054 C0          88.9056   -55.7934    -8.6798 C0            1 RES     
    2055 C0          87.8766   -56.4252    -7.6680 C0            1 RES     
    2056 C0          88.6337   -56.4779    -6.2945 C0            1 RES     
    2057 C0          87.8904   -57.1236    -5.1185 C0            1 RES     
    2058 C0          88.7103   -57.0735    -3.8078 C0            1 RES     
    2059 C0          90.0501   -57.8421    -3.8226 C0            1 RES     
    2060 C0          89.9414   -59.3261    -4.2152 C0            1 RES     
    2061 C0          88.9897   -60.1226    -3.3051 C0            1 RES     
    2062 C0          88.8399   -61.5896    -3.7328 C0            1 RES     
    2063 C0          90.1311   -62.4065    -3.5572 C0            1 RES     
    2064 C0          89.9388   -63.8971    -3.8792 C0            1 RES     
    2065 C0          89.6147   -64.1586    -5.3505 C0            1 RES     
    2066 C0          86.4491   -55.8025    -7.5278 C0            1 RES     
    2067 C0          86.3009   -54.3531    -6.9710 C0            1 RES     
    2068 C0          85.6006   -53.4871    -8.0226 C0            1 RES     
    2069 C0          85.6361   -51.9722    -7.8425 C0            1 RES     
    2070 C0          84.6425   -51.3848    -6.8509 C0            1 RES     
    2071 C0          84.8174   -49.8516    -6.8627 C0            1 RES     
    2072 C0          83.7602   -49.0911    -6.0589 C0            1 RES     
    2073 C0          82.3718   -49.1799    -6.6959 C0            1 RES     
    2074 H6          89.2665   -54.9338    -8.1754 H6            1 RES     
    2075 H6          89.7319   -56.5396    -8.6983 H6            1 RES     
    2076 H6          87.6945   -57.4684    -8.0103 H6            1 RES     
    2077 H6          88.9023   -55.4444    -5.9842 H6            1 RES     
    2078 H6          89.5805   -57.0377    -6.4513 H6            1 RES     
    2079 H6          87.6156   -58.1685    -5.3687 H6            1 RES     
    2080 H6          86.9587   -56.5563    -4.9200 H6            1 RES     
    2081 H6          88.0769   -57.4736    -2.9893 H6            1 RES     
    2082 H6          88.9252   -56.0129    -3.5496 H6            1 RES     
    2083 H6          90.5009   -57.7685    -2.8078 H6            1 RES     
    2084 H6          90.7567   -57.3493    -4.5242 H6            1 RES     
    2085 H6          89.5952   -59.4019    -5.2676 H6            1 RES     
    2086 H6          90.9631   -59.7564    -4.1632 H6            1 RES     
    2087 H6          87.9762   -59.6770    -3.3694 H6            1 RES     
    2088 H6          89.3298   -60.0664    -2.2478 H6            1 RES     
    2089 H6          88.0523   -62.0461    -3.0945 H6            1 RES     
    2090 H6          88.4924   -61.6166    -4.7870 H6            1 RES     
    2091 H6          90.9455   -62.0051    -4.1952 H6            1 RES     
    2092 H6          90.4473   -62.3283    -2.4941 H6            1 RES     
    2093 H6          89.1345   -64.3205    -3.2388 H6            1 RES     
    2094 H6          90.8858   -64.4271    -3.6394 H6            1 RES     
    2095 H6          88.6488   -63.6978    -5.6400 H6            1 RES     
    2096 H6          90.4233   -63.7575    -5.9979 H6            1 RES     
    2097 H6          89.5339   -65.2527    -5.5200 H6            1 RES     
    2098 H6          85.8587   -56.4638    -6.8581 H6            1 RES     
    2099 H6          85.9238   -55.9162    -8.5002 H6            1 RES     
    2100 H6          85.6807   -54.3466    -6.0467 H6            1 RES     
    2101 H6          87.2979   -53.9370    -6.7211 H6            1 RES     
    2102 H6          84.5747   -53.8465    -8.2494 H6            1 RES     
    2103 H6          86.1941   -53.6385    -8.8990 H6            1 RES     
    2104 H6          86.6573   -51.6644    -7.6048 H6            1 RES     
    2105 H6          85.3842   -51.5330    -8.8346 H6            1 RES     
    2106 H6          83.6263   -51.6699    -7.1966 H6            1 RES     
    2107 H6          84.8062   -51.7834    -5.8274 H6            1 RES     
    2108 H6          85.8231   -49.6175    -6.4455 H6            1 RES     
    2109 H6          84.7892   -49.4645    -7.9067 H6            1 RES     
    2110 H6          84.0517   -48.0178    -6.0483 H6            1 RES     
    2111 H6          83.7343   -49.4587    -5.0116 H6            1 RES     
    2112 H6          81.9950   -50.2216    -6.7059 H6            1 RES     
    2113 H6          81.6585   -48.5586    -6.1174 H6            1 RES     
    2114 H6          82.4047   -48.7956    -7.7399 H6            1 RES     
    2115 C0          90.1134   -55.1456   -10.9052 C0            1 RES     
    2116 C0          91.5074   -54.8747   -10.1775 C0            1 RES     
    2117 C0          92.4296   -54.1777   -11.2339 C0            1 RES     
    2118 C0          93.9170   -54.0584   -10.8446 C0            1 RES     
    2119 C0          94.7808   -53.3464   -11.9005 C0            1 RES     
    2120 C0          94.8229   -54.0107   -13.2883 C0            1 RES     
    2121 C0          95.2291   -55.4938   -13.2909 C0            1 RES     
    2122 C0          96.6042   -55.7532   -12.6507 C0            1 RES     
    2123 C0          96.9930   -57.2405   -12.6567 C0            1 RES     
    2124 C0          97.2289   -57.7921   -14.0741 C0            1 RES     
    2125 C0          97.7384   -59.2419   -14.0769 C0            1 RES     
    2126 C0          96.7172   -60.2413   -13.5333 C0            1 RES     
    2127 C0          91.6806   -54.2180    -8.7438 C0            1 RES     
    2128 C0          91.3324   -52.7267    -8.4738 C0            1 RES     
    2129 C0          90.0331   -52.5655    -7.6644 C0            1 RES     
    2130 C0          89.5675   -51.1432    -7.3999 C0            1 RES     
    2131 C0          90.3591   -50.3357    -6.3809 C0            1 RES     
    2132 C0          89.5969   -49.0126    -6.1626 C0            1 RES     
    2133 C0          90.1643   -48.1296    -5.0496 C0            1 RES     
    2134 C0          89.9853   -48.7538    -3.6649 C0            1 RES     
    2135 H6          89.9638   -54.3671   -11.6892 H6            1 RES     
    2136 H6          90.3078   -56.0382   -11.5420 H6            1 RES     
    2137 H6          91.9164   -55.8970   -10.0052 H6            1 RES     
    2138 H6          92.0363   -53.1595   -11.4435 H6            1 RES     
    2139 H6          92.3725   -54.7663   -12.1747 H6            1 RES     
    2140 H6          94.3237   -55.0697   -10.6340 H6            1 RES     
    2141 H6          94.0278   -53.4386    -9.9337 H6            1 RES     
    2142 H6          95.8156   -53.2801   -11.5016 H6            1 RES     
    2143 H6          94.4180   -52.3026   -12.0265 H6            1 RES     
    2144 H6          95.5358   -53.4359   -13.9191 H6            1 RES     
    2145 H6          93.8233   -53.9263   -13.7654 H6            1 RES     
    2146 H6          94.4589   -56.0909   -12.7574 H6            1 RES     
    2147 H6          95.2361   -55.8198   -14.3510 H6            1 RES     
    2148 H6          96.5709   -55.4357   -11.5876 H6            1 RES     
    2149 H6          97.3881   -55.1579   -13.1670 H6            1 RES     
    2150 H6          97.9399   -57.3428   -12.0831 H6            1 RES     
    2151 H6          96.2039   -57.8193   -12.1313 H6            1 RES     
    2152 H6          96.3012   -57.7417   -14.6805 H6            1 RES     
    2153 H6          98.0028   -57.1625   -14.5651 H6            1 RES     
    2154 H6          98.6792   -59.3117   -13.4888 H6            1 RES     
    2155 H6          97.9656   -59.5239   -15.1276 H6            1 RES     
    2156 H6          96.4880   -60.0443   -12.4667 H6            1 RES     
    2157 H6          95.7798   -60.1939   -14.1275 H6            1 RES     
    2158 H6          97.1333   -61.2679   -13.6093 H6            1 RES     
    2159 H6          92.7601   -54.3094    -8.5241 H6            1 RES     
    2160 H6          91.3224   -54.8652    -7.9213 H6            1 RES     
    2161 H6          92.1224   -52.3097    -7.8111 H6            1 RES     
    2162 H6          91.3441   -52.1400    -9.4146 H6            1 RES     
    2163 H6          90.1062   -53.1245    -6.7039 H6            1 RES     
    2164 H6          89.1997   -52.9740    -8.2250 H6            1 RES     
    2165 H6          89.4677   -50.5931    -8.3608 H6            1 RES     
    2166 H6          88.5709   -51.2544    -6.9417 H6            1 RES     
    2167 H6          90.3984   -50.9235    -5.4395 H6            1 RES     
    2168 H6          91.3929   -50.1437    -6.7362 H6            1 RES     
    2169 H6          89.6160   -48.4426    -7.1175 H6            1 RES     
    2170 H6          88.5299   -49.2177    -5.9150 H6            1 RES     
    2171 H6          89.5930   -47.1754    -5.0613 H6            1 RES     
    2172 H6          91.2318   -47.9067    -5.2458 H6            1 RES     
    2173 H6          90.5633   -49.6939    -3.5662 H6            1 RES     
    2174 H6          90.3450   -48.0425    -2.8934 H6            1 RES     
    2175 H6          88.9102   -48.9652    -3.4738 H6            1 RES     
    2176 C0          86.1830   -67.4837   -14.2894 C0            1 RES     
    2177 C1          85.8352   -65.9792   -14.2550 C1            1 RES     
    2178 C1          84.9781   -65.6236   -15.2470 C1            1 RES     
    2179 S2          84.6527   -63.9822   -15.2946 S2            1 RES     
    2180 C1          85.6990   -63.6694   -13.9915 C1            1 RES     
    2181 C1          86.2886   -64.8562   -13.5428 C1            1 RES     
    2182 C1          84.6951   -66.7613   -16.0333 C1            1 RES     
    2183 C1          85.4250   -67.8144   -15.5759 C1            1 RES     
    2184 C1          85.3058   -68.9336   -16.3910 C1            1 RES     
    2185 C1          84.4255   -68.6784   -17.4560 C1            1 RES     
    2186 S2          83.8166   -67.0941   -17.4059 S2            1 RES     
    2187 H3          87.0386   -64.8560   -12.7748 H3            1 RES     
    2188 H3          85.8253   -69.8703   -16.2281 H3            1 RES     
    2189 N4          82.5846   -70.9287   -19.8220 N4            1 RES     
    2190 C1          82.8506   -70.1228   -18.7524 C1            1 RES     
    2191 C1          84.1329   -69.5780   -18.5663 C1            1 RES     
    2192 C1          85.1148   -69.8659   -19.5160 C1            1 RES     
    2193 N4          86.3739   -69.3589   -19.4861 N4            1 RES     
    2194 S2          87.0368   -69.9848   -20.8647 S2            1 RES     
    2195 N4          85.8112   -70.8832   -21.5198 N4            1 RES     
    2196 C1          84.8080   -70.6894   -20.6283 C1            1 RES     
    2197 C1          83.5303   -71.2276   -20.7564 C1            1 RES     
    2198 H5          82.0616   -69.9112   -18.0360 H5            1 RES     
    2199 C0          85.6601   -68.4261   -13.1487 C0            1 RES     
    2200 C0          84.2045   -68.9448   -12.8421 C0            1 RES     
    2201 C0          84.3297   -69.7425   -11.4966 C0            1 RES     
    2202 C0          83.0617   -70.4346   -10.9814 C0            1 RES     
    2203 C0          83.2905   -71.1449    -9.6265 C0            1 RES     
    2204 C0          84.3221   -72.2946    -9.6353 C0            1 RES     
    2205 C0          84.0503   -73.4009   -10.6698 C0            1 RES     
    2206 C0          82.6671   -74.0550   -10.5041 C0            1 RES     
    2207 C0          82.3762   -75.1195   -11.5717 C0            1 RES     
    2208 C0          83.2790   -76.3590   -11.4529 C0            1 RES     
    2209 C0          82.9034   -77.4648   -12.4521 C0            1 RES     
    2210 C0          83.1334   -77.0633   -13.9095 C0            1 RES     
    2211 C0          83.0131   -67.9323   -12.8154 C0            1 RES     
    2212 C0          82.9834   -66.8185   -11.7240 C0            1 RES     
    2213 C0          82.9627   -65.4503   -12.4122 C0            1 RES     
    2214 C0          83.2594   -64.2168   -11.5640 C0            1 RES     
    2215 C0          82.1135   -63.6883   -10.7137 C0            1 RES     
    2216 C0          82.6139   -62.4239    -9.9843 C0            1 RES     
    2217 C0          81.5232   -61.6575    -9.2325 C0            1 RES     
    2218 C0          80.5141   -61.0053   -10.1799 C0            1 RES     
    2219 H6          85.9748   -67.9901   -12.2351 H6            1 RES     
    2220 H6          86.2397   -69.3670   -13.2852 H6            1 RES     
    2221 H6          83.9451   -69.6608   -13.6536 H6            1 RES     
    2222 H6          84.6768   -69.0555   -10.6941 H6            1 RES     
    2223 H6          85.1125   -70.5188   -11.6351 H6            1 RES     
    2224 H6          82.6831   -71.1500   -11.7395 H6            1 RES     
    2225 H6          82.2778   -69.6719   -10.7999 H6            1 RES     
    2226 H6          82.3152   -71.5415    -9.2760 H6            1 RES     
    2227 H6          83.6159   -70.3967    -8.8702 H6            1 RES     
    2228 H6          84.3426   -72.7470    -8.6188 H6            1 RES     
    2229 H6          85.3373   -71.8852    -9.8250 H6            1 RES     
    2230 H6          84.1374   -72.9758   -11.6920 H6            1 RES     
    2231 H6          84.8466   -74.1650   -10.5522 H6            1 RES     
    2232 H6          81.8863   -73.2765   -10.6232 H6            1 RES     
    2233 H6          82.5683   -74.4967    -9.4883 H6            1 RES     
    2234 H6          81.3214   -75.4460   -11.4408 H6            1 RES     
    2235 H6          82.4736   -74.6511   -12.5736 H6            1 RES     
    2236 H6          84.3453   -76.0900   -11.6014 H6            1 RES     
    2237 H6          83.1614   -76.7748   -10.4284 H6            1 RES     
    2238 H6          81.8403   -77.7573   -12.3089 H6            1 RES     
    2239 H6          83.5373   -78.3525   -12.2390 H6            1 RES     
    2240 H6          82.4869   -76.2112   -14.2012 H6            1 RES     
    2241 H6          84.1982   -76.7892   -14.0677 H6            1 RES     
    2242 H6          82.8854   -77.9202   -14.5702 H6            1 RES     
    2243 H6          82.0768   -68.5189   -12.6987 H6            1 RES     
    2244 H6          82.9005   -67.5018   -13.8335 H6            1 RES     
    2245 H6          82.0685   -66.9052   -11.0959 H6            1 RES     
    2246 H6          83.8676   -66.9107   -11.0611 H6            1 RES     
    2247 H6          82.0563   -65.3065   -13.0372 H6            1 RES     
    2248 H6          83.8029   -65.4954   -13.0720 H6            1 RES     
    2249 H6          84.1459   -64.4073   -10.9542 H6            1 RES     
    2250 H6          83.5211   -63.4021   -12.2770 H6            1 RES     
    2251 H6          81.2788   -63.4428   -11.4040 H6            1 RES     
    2252 H6          81.7697   -64.4464    -9.9787 H6            1 RES     
    2253 H6          83.3998   -62.7342    -9.2589 H6            1 RES     
    2254 H6          83.0841   -61.7181   -10.7064 H6            1 RES     
    2255 H6          82.0171   -60.8407    -8.6613 H6            1 RES     
    2256 H6          81.0077   -62.3277    -8.5129 H6            1 RES     
    2257 H6          79.9508   -61.7637   -10.7585 H6            1 RES     
    2258 H6          79.7879   -60.4073    -9.5928 H6            1 RES     
    2259 H6          81.0382   -60.3244   -10.8872 H6            1 RES     
    2260 C0          87.7550   -67.5396   -14.4356 C0            1 RES     
    2261 C0          88.7740   -68.0679   -13.3271 C0            1 RES     
    2262 C0          90.1662   -67.4383   -13.6702 C0            1 RES     
    2263 C0          91.3676   -68.0148   -12.8941 C0            1 RES     
    2264 C0          92.7109   -67.3511   -13.2454 C0            1 RES     
    2265 C0          93.1458   -67.4606   -14.7178 C0            1 RES     
    2266 C0          93.1809   -68.8896   -15.2844 C0            1 RES     
    2267 C0          94.0998   -69.8389   -14.4954 C0            1 RES     
    2268 C0          94.1197   -71.2640   -15.0713 C0            1 RES     
    2269 C0          94.7643   -71.3369   -16.4671 C0            1 RES     
    2270 C0          94.8990   -72.7749   -16.9917 C0            1 RES     
    2271 C0          93.5527   -73.4521   -17.2485 C0            1 RES     
    2272 C0          88.5115   -68.0597   -11.7625 C0            1 RES     
    2273 C0          88.4251   -66.7372   -10.9491 C0            1 RES     
    2274 C0          86.9833   -66.4019   -10.5271 C0            1 RES     
    2275 C0          86.7790   -65.0941    -9.7803 C0            1 RES     
    2276 C0          87.2648   -65.0388    -8.3388 C0            1 RES     
    2277 C0          86.7919   -63.6922    -7.7540 C0            1 RES     
    2278 C0          87.0573   -63.5220    -6.2571 C0            1 RES     
    2279 C0          86.2158   -64.4744    -5.4062 C0            1 RES     
    2280 H6          88.1016   -66.5412   -14.7908 H6            1 RES     
    2281 H6          87.9807   -68.1617   -15.3312 H6            1 RES     
    2282 H6          88.8450   -69.1604   -13.5354 H6            1 RES     
    2283 H6          90.1229   -66.3422   -13.4913 H6            1 RES     
    2284 H6          90.3540   -67.6006   -14.7534 H6            1 RES     
    2285 H6          91.4240   -69.1102   -13.0655 H6            1 RES     
    2286 H6          91.2465   -67.8349   -11.8084 H6            1 RES     
    2287 H6          93.4928   -67.8109   -12.6040 H6            1 RES     
    2288 H6          92.6677   -66.2729   -12.9757 H6            1 RES     
    2289 H6          94.1571   -67.0071   -14.8084 H6            1 RES     
    2290 H6          92.4593   -66.8565   -15.3486 H6            1 RES     
    2291 H6          92.1517   -69.3077   -15.3020 H6            1 RES     
    2292 H6          93.5308   -68.8073   -16.3336 H6            1 RES     
    2293 H6          93.7233   -69.9200   -13.4543 H6            1 RES     
    2294 H6          95.1341   -69.4333   -14.4605 H6            1 RES     
    2295 H6          94.7173   -71.8977   -14.3803 H6            1 RES     
    2296 H6          93.0809   -71.6566   -15.0924 H6            1 RES     
    2297 H6          94.1852   -70.7438   -17.2046 H6            1 RES     
    2298 H6          95.7873   -70.9068   -16.3978 H6            1 RES     
    2299 H6          95.4926   -73.3833   -16.2753 H6            1 RES     
    2300 H6          95.4516   -72.7385   -17.9553 H6            1 RES     
    2301 H6          92.9731   -73.5667   -16.3104 H6            1 RES     
    2302 H6          92.9595   -72.8623   -17.9794 H6            1 RES     
    2303 H6          93.7264   -74.4651   -17.6686 H6            1 RES     
    2304 H6          89.3688   -68.6101   -11.3334 H6            1 RES     
    2305 H6          87.7256   -68.7719   -11.4482 H6            1 RES     
    2306 H6          88.9627   -66.8956    -9.9883 H6            1 RES     
    2307 H6          88.9347   -65.9094   -11.4824 H6            1 RES     
    2308 H6          86.5479   -67.2436    -9.9421 H6            1 RES     
    2309 H6          86.3688   -66.2556   -11.4083 H6            1 RES     
    2310 H6          87.1888   -64.2501   -10.3766 H6            1 RES     
    2311 H6          85.6849   -64.9834    -9.7015 H6            1 RES     
    2312 H6          86.8003   -65.8865    -7.7920 H6            1 RES     
    2313 H6          88.3697   -65.1289    -8.2835 H6            1 RES     
    2314 H6          87.3099   -62.8766    -8.3051 H6            1 RES     
    2315 H6          85.6967   -63.5640    -7.9158 H6            1 RES     
    2316 H6          86.7633   -62.4844    -5.9852 H6            1 RES     
    2317 H6          88.1366   -63.6527    -6.0434 H6            1 RES     
    2318 H6          86.4849   -65.5325    -5.5958 H6            1 RES     
    2319 H6          86.3919   -64.2585    -4.3324 H6            1 RES     
    2320 H6          85.1343   -64.3293    -5.6210 H6            1 RES     
    2321 C0          82.8406   -75.5877   -23.9331 C0            1 RES     
    2322 C1          82.8500   -74.1725   -23.3144 C1            1 RES     
    2323 C1          82.5529   -73.2084   -24.2240 C1            1 RES     
    2324 S2          82.6447   -71.6548   -23.6073 S2            1 RES     
    2325 C1          83.1367   -72.2184   -22.0805 C1            1 RES     
    2326 C1          83.2241   -73.6148   -22.0804 C1            1 RES     
    2327 C1          82.3567   -73.8156   -25.4831 C1            1 RES     
    2328 C1          82.5954   -75.1509   -25.3782 C1            1 RES     
    2329 C1          82.5608   -75.7922   -26.6106 C1            1 RES     
    2330 C1          82.2495   -74.8810   -27.6338 C1            1 RES     
    2331 S2          82.0372   -73.3067   -27.0341 S2            1 RES     
    2332 H3          83.5923   -74.1549   -21.2289 H3            1 RES     
    2333 H3          82.7532   -76.8480   -26.7592 H3            1 RES     
    2334 N4          81.0359   -75.3324   -31.1514 N4            1 RES     
    2335 C1          81.0322   -75.1036   -29.8054 C1            1 RES     
    2336 C1          82.2246   -75.1671   -29.0639 C1            1 RES     
    2337 C1          83.4100   -75.4471   -29.7461 C1            1 RES     
    2338 N4          84.6347   -75.4808   -29.1608 N4            1 RES     
    2339 S2          85.6287   -75.7877   -30.4452 S2            1 RES     
    2340 N4          84.5925   -75.8882   -31.7315 N4            1 RES     
    2341 C1          83.3901   -75.6615   -31.1471 C1            1 RES     
    2342 C1          82.1805   -75.6140   -31.8350 C1            1 RES     
    2343 H5          80.0936   -74.8794   -29.3060 H5            1 RES     
    2344 C0          81.7174   -76.6047   -23.5245 C0            1 RES     
    2345 C0          80.1827   -76.6254   -23.8796 C0            1 RES     
    2346 C0          79.5899   -77.8257   -23.0609 C0            1 RES     
    2347 C0          78.1024   -78.1371   -23.2675 C0            1 RES     
    2348 C0          77.6176   -79.3030   -22.3740 C0            1 RES     
    2349 C0          78.2873   -80.6710   -22.6310 C0            1 RES     
    2350 C0          78.2055   -81.1695   -24.0846 C0            1 RES     
    2351 C0          76.7607   -81.2851   -24.6022 C0            1 RES     
    2352 C0          76.6841   -81.7289   -26.0700 C0            1 RES     
    2353 C0          77.1688   -83.1715   -26.2927 C0            1 RES     
    2354 C0          76.9806   -83.6437   -27.7432 C0            1 RES     
    2355 C0          77.8467   -82.8771   -28.7434 C0            1 RES     
    2356 C0          79.3330   -75.3236   -23.7114 C0            1 RES     
    2357 C0          79.1250   -74.7279   -22.2850 C0            1 RES     
    2358 C0          79.6797   -73.3004   -22.2580 C0            1 RES     
    2359 C0          79.8850   -72.6369   -20.8992 C0            1 RES     
    2360 C0          78.6455   -72.0545   -20.2360 C0            1 RES     
    2361 C0          79.0862   -71.3978   -18.9110 C0            1 RES     
    2362 C0          77.9873   -70.5961   -18.2096 C0            1 RES     
    2363 C0          77.6026   -69.3354   -18.9868 C0            1 RES     
    2364 H6          81.7365   -76.6592   -22.4660 H6            1 RES     
    2365 H6          82.0799   -77.5826   -23.9145 H6            1 RES     
    2366 H6          80.1110   -76.8684   -24.9633 H6            1 RES     
    2367 H6          79.7371   -77.6368   -21.9750 H6            1 RES     
    2368 H6          80.1710   -78.7351   -23.3248 H6            1 RES     
    2369 H6          77.9033   -78.3543   -24.3366 H6            1 RES     
    2370 H6          77.5003   -77.2538   -22.9735 H6            1 RES     
    2371 H6          76.5215   -79.4095   -22.5106 H6            1 RES     
    2372 H6          77.7772   -79.0374   -21.3055 H6            1 RES     
    2373 H6          77.8065   -81.4209   -21.9639 H6            1 RES     
    2374 H6          79.3587   -80.6237   -22.3411 H6            1 RES     
    2375 H6          78.7785   -80.4807   -24.7406 H6            1 RES     
    2376 H6          78.7009   -82.1619   -24.1211 H6            1 RES     
    2377 H6          76.2829   -80.2853   -24.5563 H6            1 RES     
    2378 H6          76.1761   -81.9816   -23.9621 H6            1 RES     
    2379 H6          75.6188   -81.6698   -26.3829 H6            1 RES     
    2380 H6          77.2679   -81.0136   -26.6865 H6            1 RES     
    2381 H6          78.2386   -83.2784   -26.0179 H6            1 RES     
    2382 H6          76.5697   -83.8418   -25.6384 H6            1 RES     
    2383 H6          75.9105   -83.5563   -28.0324 H6            1 RES     
    2384 H6          77.2661   -84.7164   -27.7969 H6            1 RES     
    2385 H6          77.5728   -81.8034   -28.7762 H6            1 RES     
    2386 H6          78.9200   -82.9758   -28.4749 H6            1 RES     
    2387 H6          77.6946   -83.2981   -29.7593 H6            1 RES     
    2388 H6          78.3213   -75.5276   -24.1229 H6            1 RES     
    2389 H6          79.7273   -74.5584   -24.4139 H6            1 RES     
    2390 H6          78.0426   -74.6848   -22.0289 H6            1 RES     
    2391 H6          79.6338   -75.3607   -21.5298 H6            1 RES     
    2392 H6          79.1476   -72.6280   -22.9635 H6            1 RES     
    2393 H6          80.6786   -73.4191   -22.6204 H6            1 RES     
    2394 H6          80.3950   -73.3371   -20.2331 H6            1 RES     
    2395 H6          80.5789   -71.7825   -21.0697 H6            1 RES     
    2396 H6          78.2256   -71.2979   -20.9323 H6            1 RES     
    2397 H6          77.8822   -72.8376   -20.0427 H6            1 RES     
    2398 H6          79.4344   -72.2046   -18.2269 H6            1 RES     
    2399 H6          79.9457   -70.7107   -19.0838 H6            1 RES     
    2400 H6          78.3850   -70.2690   -17.2237 H6            1 RES     
    2401 H6          77.0963   -71.2350   -18.0347 H6            1 RES     
    2402 H6          77.1588   -69.5841   -19.9709 H6            1 RES     
    2403 H6          76.8565   -68.7558   -18.4063 H6            1 RES     
    2404 H6          78.4990   -68.6947   -19.1441 H6            1 RES     
    2405 C0          84.2890   -76.1614   -23.6707 C0            1 RES     
    2406 C0          84.6466   -77.3743   -22.6975 C0            1 RES     
    2407 C0          86.1636   -77.2219   -22.3399 C0            1 RES     
    2408 C0          86.8039   -78.4284   -21.6240 C0            1 RES     
    2409 C0          88.2879   -78.2257   -21.2708 C0            1 RES     
    2410 C0          89.2297   -77.9705   -22.4611 C0            1 RES     
    2411 C0          89.1667   -79.0220   -23.5815 C0            1 RES     
    2412 C0          89.4672   -80.4514   -23.0973 C0            1 RES     
    2413 C0          89.3951   -81.4907   -24.2277 C0            1 RES     
    2414 C0          90.5021   -81.3072   -25.2813 C0            1 RES     
    2415 C0          90.5096   -82.4174   -26.3437 C0            1 RES     
    2416 C0          89.2584   -82.4204   -27.2222 C0            1 RES     
    2417 C0          83.8002   -77.8121   -21.4291 C0            1 RES     
    2418 C0          83.6969   -76.9193   -20.1602 C0            1 RES     
    2419 C0          82.3185   -76.2473   -20.0270 C0            1 RES     
    2420 C0          82.1328   -75.3009   -18.8524 C0            1 RES     
    2421 C0          82.0131   -75.9295   -17.4713 C0            1 RES     
    2422 C0          81.6599   -74.7951   -16.4877 C0            1 RES     
    2423 C0          81.3471   -75.2630   -15.0652 C0            1 RES     
    2424 C0          80.0511   -76.0716   -14.9915 C0            1 RES     
    2425 H6          84.9589   -75.3031   -23.4308 H6            1 RES     
    2426 H6          84.7040   -76.4718   -24.6562 H6            1 RES     
    2427 H6          84.5497   -78.2721   -23.3507 H6            1 RES     
    2428 H6          86.2976   -76.3210   -21.7029 H6            1 RES     
    2429 H6          86.7203   -77.0563   -23.2873 H6            1 RES     
    2430 H6          86.6788   -79.3361   -22.2509 H6            1 RES     
    2431 H6          86.3096   -78.6040   -20.6490 H6            1 RES     
    2432 H6          88.6324   -79.1311   -20.7269 H6            1 RES     
    2433 H6          88.3825   -77.3718   -20.5644 H6            1 RES     
    2434 H6          90.2685   -77.9180   -22.0679 H6            1 RES     
    2435 H6          88.9982   -76.9791   -22.9056 H6            1 RES     
    2436 H6          88.1622   -79.0000   -24.0556 H6            1 RES     
    2437 H6          89.9090   -78.7163   -24.3467 H6            1 RES     
    2438 H6          88.7045   -80.7435   -22.3454 H6            1 RES     
    2439 H6          90.4666   -80.4920   -22.6127 H6            1 RES     
    2440 H6          89.5171   -82.4959   -23.7686 H6            1 RES     
    2441 H6          88.3891   -81.4419   -24.6959 H6            1 RES     
    2442 H6          90.4059   -80.3277   -25.7935 H6            1 RES     
    2443 H6          91.4834   -81.3344   -24.7592 H6            1 RES     
    2444 H6          90.6237   -83.4081   -25.8525 H6            1 RES     
    2445 H6          91.3891   -82.2552   -27.0035 H6            1 RES     
    2446 H6          88.3476   -82.6314   -26.6264 H6            1 RES     
    2447 H6          89.1463   -81.4408   -27.7339 H6            1 RES     
    2448 H6          89.3539   -83.2139   -27.9929 H6            1 RES     
    2449 H6          84.2752   -78.7500   -21.0874 H6            1 RES     
    2450 H6          82.8175   -78.2481   -21.6896 H6            1 RES     
    2451 H6          83.7648   -77.5852   -19.2718 H6            1 RES     
    2452 H6          84.5445   -76.2064   -20.1065 H6            1 RES     
    2453 H6          81.5137   -77.0171   -20.0235 H6            1 RES     
    2454 H6          82.1481   -75.5911   -20.8731 H6            1 RES     
    2455 H6          82.9197   -74.5158   -18.8713 H6            1 RES     
    2456 H6          81.1497   -74.8317   -19.0222 H6            1 RES     
    2457 H6          81.1961   -76.6806   -17.5106 H6            1 RES     
    2458 H6          82.9578   -76.4312   -17.1750 H6            1 RES     
    2459 H6          82.5192   -74.0898   -16.4526 H6            1 RES     
    2460 H6          80.7740   -74.2273   -16.8549 H6            1 RES     
    2461 H6          81.2079   -74.3530   -14.4412 H6            1 RES     
    2462 H6          82.1979   -75.8452   -14.6590 H6            1 RES     
    2463 H6          80.1312   -77.0187   -15.5612 H6            1 RES     
    2464 H6          79.8347   -76.3209   -13.9325 H6            1 RES     
    2465 H6          79.2020   -75.4758   -15.3927 H6            1 RES     
    2466 C0          81.8453   -78.0295   -36.6962 C0            1 RES     
    2467 C1          81.9244   -77.0244   -35.5261 C1            1 RES     
    2468 C1          82.2297   -75.7681   -35.9432 C1            1 RES     
    2469 S2          82.4139   -74.6729   -34.6906 S2            1 RES     
    2470 C1          82.1291   -75.8679   -33.5152 C1            1 RES     
    2471 C1          81.8977   -77.1063   -34.1239 C1            1 RES     
    2472 C1          82.4141   -75.7855   -37.3426 C1            1 RES     
    2473 C1          82.2902   -77.0627   -37.7946 C1            1 RES     
    2474 C1          82.6008   -77.1779   -39.1442 C1            1 RES     
    2475 C1          82.9262   -75.9229   -39.6859 C1            1 RES     
    2476 S2          82.8502   -74.6925   -38.5181 S2            1 RES     
    2477 H3          81.7727   -78.0021   -33.5459 H3            1 RES     
    2478 H3          82.5969   -78.1090   -39.6982 H3            1 RES     
    2479 N4          83.1230   -74.6520   -43.2067 N4            1 RES     
    2480 C1          82.6422   -74.9183   -41.9569 C1            1 RES     
    2481 C1          83.4017   -75.6664   -41.0407 C1            1 RES     
    2482 C1          84.6656   -76.1068   -41.4379 C1            1 RES     
    2483 N4          85.5218   -76.7869   -40.6330 N4            1 RES     
    2484 S2          86.8451   -76.9720   -41.6057 S2            1 RES     
    2485 N4          86.4026   -76.2345   -43.0195 N4            1 RES     
    2486 C1          85.1501   -75.8003   -42.7342 C1            1 RES     
    2487 C1          84.3507   -75.0782   -43.6165 C1            1 RES     
    2488 H5          81.6581   -74.5535   -41.6760 H5            1 RES     
    2489 C0          80.4569   -78.6378   -37.1027 C0            1 RES     
    2490 C0          79.2216   -77.9707   -37.8174 C0            1 RES     
    2491 C0          78.1052   -79.0734   -37.8181 C0            1 RES     
    2492 C0          76.7894   -78.7260   -38.5254 C0            1 RES     
    2493 C0          75.7476   -79.8645   -38.4184 C0            1 RES     
    2494 C0          76.1433   -81.2027   -39.0807 C0            1 RES     
    2495 C0          76.5302   -81.1008   -40.5667 C0            1 RES     
    2496 C0          75.4178   -80.4924   -41.4391 C0            1 RES     
    2497 C0          75.8271   -80.3402   -42.9112 C0            1 RES     
    2498 C0          76.0275   -81.6869   -43.6264 C0            1 RES     
    2499 C0          76.3240   -81.5244   -45.1257 C0            1 RES     
    2500 C0          77.6596   -80.8337   -45.4042 C0            1 RES     
    2501 C0          78.6855   -76.5929   -37.3080 C0            1 RES     
    2502 C0          78.0721   -76.4953   -35.8773 C0            1 RES     
    2503 C0          78.8729   -75.4747   -35.0629 C0            1 RES     
    2504 C0          78.6701   -75.4466   -33.5507 C0            1 RES     
    2505 C0          77.4323   -74.7187   -33.0471 C0            1 RES     
    2506 C0          77.4513   -74.7710   -31.5050 C0            1 RES     
    2507 C0          76.3728   -73.9184   -30.8327 C0            1 RES     
    2508 C0          76.6136   -72.4197   -31.0258 C0            1 RES     
    2509 H6          80.0465   -79.0579   -36.2201 H6            1 RES     
    2510 H6          80.7169   -79.4805   -37.7824 H6            1 RES     
    2511 H6          79.5289   -77.7796   -38.8698 H6            1 RES     
    2512 H6          77.8524   -79.3396   -36.7685 H6            1 RES     
    2513 H6          78.5261   -79.9807   -38.3020 H6            1 RES     
    2514 H6          76.9830   -78.4711   -39.5871 H6            1 RES     
    2515 H6          76.3322   -77.8440   -38.0330 H6            1 RES     
    2516 H6          74.7992   -79.5077   -38.8705 H6            1 RES     
    2517 H6          75.5297   -80.0629   -37.3456 H6            1 RES     
    2518 H6          75.2862   -81.9050   -38.9775 H6            1 RES     
    2519 H6          76.9965   -81.6546   -38.5311 H6            1 RES     
    2520 H6          77.4517   -80.4889   -40.6639 H6            1 RES     
    2521 H6          76.7669   -82.1270   -40.9168 H6            1 RES     
    2522 H6          75.1948   -79.4695   -41.0731 H6            1 RES     
    2523 H6          74.4904   -81.1012   -41.3620 H6            1 RES     
    2524 H6          75.0119   -79.7907   -43.4305 H6            1 RES     
    2525 H6          76.7487   -79.7230   -42.9598 H6            1 RES     
    2526 H6          76.8510   -82.2663   -43.1599 H6            1 RES     
    2527 H6          75.0875   -82.2728   -43.5292 H6            1 RES     
    2528 H6          75.5015   -80.9569   -45.6134 H6            1 RES     
    2529 H6          76.3624   -82.5371   -45.5819 H6            1 RES     
    2530 H6          77.6657   -79.7944   -45.0182 H6            1 RES     
    2531 H6          78.4905   -81.4049   -44.9384 H6            1 RES     
    2532 H6          77.8291   -80.7904   -46.5005 H6            1 RES     
    2533 H6          77.8986   -76.2563   -38.0164 H6            1 RES     
    2534 H6          79.4826   -75.8335   -37.4572 H6            1 RES     
    2535 H6          77.0148   -76.1501   -35.9234 H6            1 RES     
    2536 H6          78.0898   -77.4895   -35.3864 H6            1 RES     
    2537 H6          78.8237   -74.4550   -35.4996 H6            1 RES     
    2538 H6          79.8806   -75.8179   -35.1634 H6            1 RES     
    2539 H6          78.7088   -76.4686   -33.1659 H6            1 RES     
    2540 H6          79.5457   -74.9038   -33.1274 H6            1 RES     
    2541 H6          77.4983   -73.6706   -33.4084 H6            1 RES     
    2542 H6          76.5016   -75.1824   -33.4369 H6            1 RES     
    2543 H6          77.3150   -75.8321   -31.1956 H6            1 RES     
    2544 H6          78.4387   -74.4326   -31.1160 H6            1 RES     
    2545 H6          76.4134   -74.1224   -29.7401 H6            1 RES     
    2546 H6          75.3671   -74.2043   -31.2065 H6            1 RES     
    2547 H6          76.5484   -72.1317   -32.0935 H6            1 RES     
    2548 H6          75.8481   -71.8463   -30.4645 H6            1 RES     
    2549 H6          77.6175   -72.1402   -30.6348 H6            1 RES     
    2550 C0          82.9082   -79.1464   -36.3521 C0            1 RES     
    2551 C0          82.5769   -80.6617   -35.9775 C0            1 RES     
    2552 C0          83.8245   -81.2095   -35.2058 C0            1 RES     
    2553 C0          83.8480   -82.7337   -34.9734 C0            1 RES     
    2554 C0          85.0791   -83.2245   -34.1913 C0            1 RES     
    2555 C0          86.4435   -82.9375   -34.8434 C0            1 RES     
    2556 C0          86.5939   -83.4353   -36.2905 C0            1 RES     
    2557 C0          86.3554   -84.9477   -36.4457 C0            1 RES     
    2558 C0          86.5044   -85.4282   -37.8984 C0            1 RES     
    2559 C0          87.9467   -85.3109   -38.4229 C0            1 RES     
    2560 C0          88.1243   -85.9054   -39.8288 C0            1 RES     
    2561 C0          87.3513   -85.1458   -40.9071 C0            1 RES     
    2562 C0          81.2266   -81.1684   -35.3165 C0            1 RES     
    2563 C0          80.8343   -80.7980   -33.8581 C0            1 RES     
    2564 C0          79.7004   -79.7585   -33.8022 C0            1 RES     
    2565 C0          79.2834   -79.2791   -32.4216 C0            1 RES     
    2566 C0          78.4953   -80.2558   -31.5602 C0            1 RES     
    2567 C0          78.0454   -79.4865   -30.3014 C0            1 RES     
    2568 C0          77.1044   -80.2679   -29.3826 C0            1 RES     
    2569 C0          75.7393   -80.5172   -30.0257 C0            1 RES     
    2570 H6          83.6023   -78.7333   -35.5836 H6            1 RES     
    2571 H6          83.5966   -79.2259   -37.2237 H6            1 RES     
    2572 H6          82.5478   -81.1759   -36.9659 H6            1 RES     
    2573 H6          83.8938   -80.7006   -34.2201 H6            1 RES     
    2574 H6          84.7299   -80.9428   -35.7923 H6            1 RES     
    2575 H6          83.7812   -83.2553   -35.9512 H6            1 RES     
    2576 H6          82.9852   -83.0415   -34.3515 H6            1 RES     
    2577 H6          84.9727   -84.3209   -34.0471 H6            1 RES     
    2578 H6          85.0755   -82.7657   -33.1782 H6            1 RES     
    2579 H6          87.2282   -83.4087   -34.2119 H6            1 RES     
    2580 H6          86.6308   -81.8426   -34.8344 H6            1 RES     
    2581 H6          85.8880   -82.8845   -36.9482 H6            1 RES     
    2582 H6          87.6245   -83.1787   -36.6097 H6            1 RES     
    2583 H6          85.3149   -85.1805   -36.1371 H6            1 RES     
    2584 H6          87.0485   -85.5165   -35.7888 H6            1 RES     
    2585 H6          86.2105   -86.5000   -37.9298 H6            1 RES     
    2586 H6          85.8008   -84.8556   -38.5392 H6            1 RES     
    2587 H6          88.2788   -84.2525   -38.4416 H6            1 RES     
    2588 H6          88.6118   -85.8744   -37.7328 H6            1 RES     
    2589 H6          87.8139   -86.9728   -39.8284 H6            1 RES     
    2590 H6          89.2042   -85.8594   -40.0871 H6            1 RES     
    2591 H6          86.2577   -85.2004   -40.7338 H6            1 RES     
    2592 H6          87.6691   -84.0817   -40.9296 H6            1 RES     
    2593 H6          87.5632   -85.5998   -41.8980 H6            1 RES     
    2594 H6          81.3087   -82.2707   -35.3250 H6            1 RES     
    2595 H6          80.3549   -81.0949   -35.9936 H6            1 RES     
    2596 H6          80.3987   -81.7053   -33.3844 H6            1 RES     
    2597 H6          81.7278   -80.5113   -33.2675 H6            1 RES     
    2598 H6          78.8100   -80.1300   -34.3586 H6            1 RES     
    2599 H6          80.0256   -78.8367   -34.2713 H6            1 RES     
    2600 H6          80.1672   -78.8826   -31.8761 H6            1 RES     
    2601 H6          78.5764   -78.4549   -32.6120 H6            1 RES     
    2602 H6          77.6150   -80.5918   -32.1479 H6            1 RES     
    2603 H6          79.1113   -81.1377   -31.2868 H6            1 RES     
    2604 H6          78.9550   -79.2042   -29.7268 H6            1 RES     
    2605 H6          77.5245   -78.5445   -30.5898 H6            1 RES     
    2606 H6          76.9368   -79.6466   -28.4755 H6            1 RES     
    2607 H6          77.5755   -81.2230   -29.0766 H6            1 RES     
    2608 H6          75.8246   -81.1676   -30.9187 H6            1 RES     
    2609 H6          75.0754   -81.0194   -29.2925 H6            1 RES     
    2610 H6          75.2708   -79.5527   -30.3208 H6            1 RES     
    2611 C0          85.4237   -75.3612   -48.9406 C0            1 RES     
    2612 C1          85.2579   -74.9265   -47.4678 C1            1 RES     
    2613 C1          85.9723   -73.8089   -47.1748 C1            1 RES     
    2614 S2          85.8880   -73.3634   -45.5634 S2            1 RES     
    2615 C1          84.9078   -74.6978   -45.1769 C1            1 RES     
    2616 C1          84.6657   -75.4723   -46.3167 C1            1 RES     
    2617 C1          86.6822   -73.4076   -48.3271 C1            1 RES     
    2618 C1          86.4660   -74.3092   -49.3227 C1            1 RES     
    2619 C1          87.2473   -74.0559   -50.4437 C1            1 RES     
    2620 C1          88.0284   -72.9038   -50.2522 C1            1 RES     
    2621 S2          87.7750   -72.2168   -48.7201 S2            1 RES     
    2622 H3          84.1288   -76.4003   -46.2621 H3            1 RES     
    2623 H3          87.2550   -74.6674   -51.3381 H3            1 RES     
    2624 N4          89.8672   -70.6606   -52.6265 N4            1 RES     
    2625 C1          88.8886   -71.1467   -51.8079 C1            1 RES     
    2626 C1          89.0414   -72.3880   -51.1662 C1            1 RES     
    2627 C1          90.2279   -73.0941   -51.3723 C1            1 RES     
    2628 N4          90.5258   -74.2735   -50.7694 N4            1 RES     
    2629 S2          92.0478   -74.5820   -51.3351 S2            1 RES     
    2630 N4          92.3708   -73.2939   -52.3225 N4            1 RES     
    2631 C1          91.2370   -72.5586   -52.2115 C1            1 RES     
    2632 C1          91.0295   -71.3369   -52.8465 C1            1 RES     
    2633 H5          87.9806   -70.5681   -51.6616 H5            1 RES     
    2634 C0          84.2090   -75.2375   -49.9265 C0            1 RES     
    2635 C0          83.5344   -73.9615   -50.5579 C0            1 RES     
    2636 C0          82.2937   -74.5049   -51.3503 C0            1 RES     
    2637 C0          81.4735   -73.4782   -52.1412 C0            1 RES     
    2638 C0          80.2494   -74.1170   -52.8385 C0            1 RES     
    2639 C0          80.5659   -75.1890   -53.9046 C0            1 RES     
    2640 C0          81.5170   -74.7289   -55.0235 C0            1 RES     
    2641 C0          81.0011   -73.4942   -55.7837 C0            1 RES     
    2642 C0          81.9777   -73.0036   -56.8621 C0            1 RES     
    2643 C0          82.1389   -73.9931   -58.0285 C0            1 RES     
    2644 C0          83.0280   -73.4429   -59.1551 C0            1 RES     
    2645 C0          84.4825   -73.2393   -58.7296 C0            1 RES     
    2646 C0          83.1611   -72.7511   -49.6411 C0            1 RES     
    2647 C0          82.0738   -72.9367   -48.5384 C0            1 RES     
    2648 C0          82.6953   -72.6301   -47.1725 C0            1 RES     
    2649 C0          81.9271   -73.0543   -45.9240 C0            1 RES     
    2650 C0          80.7858   -72.1462   -45.4902 C0            1 RES     
    2651 C0          80.1861   -72.7315   -44.1944 C0            1 RES     
    2652 C0          79.1484   -71.8323   -43.5187 C0            1 RES     
    2653 C0          79.7711   -70.5592   -42.9420 C0            1 RES     
    2654 H6          83.4032   -75.7552   -49.4720 H6            1 RES     
    2655 H6          84.5210   -75.8257   -50.8189 H6            1 RES     
    2656 H6          84.2641   -73.5452   -51.2879 H6            1 RES     
    2657 H6          81.5972   -75.0051   -50.6425 H6            1 RES     
    2658 H6          82.6583   -75.2755   -52.0628 H6            1 RES     
    2659 H6          82.1195   -72.9618   -52.8800 H6            1 RES     
    2660 H6          81.0676   -72.7190   -51.4425 H6            1 RES     
    2661 H6          79.6591   -73.3050   -53.3112 H6            1 RES     
    2662 H6          79.5899   -74.5795   -52.0710 H6            1 RES     
    2663 H6          79.6047   -75.5174   -54.3592 H6            1 RES     
    2664 H6          81.0118   -76.0820   -53.4167 H6            1 RES     
    2665 H6          82.5133   -74.5043   -54.5877 H6            1 RES     
    2666 H6          81.6383   -75.5810   -55.7241 H6            1 RES     
    2667 H6          80.8850   -72.6554   -55.0675 H6            1 RES     
    2668 H6          80.0080   -73.7070   -56.2367 H6            1 RES     
    2669 H6          81.5755   -72.0507   -57.2701 H6            1 RES     
    2670 H6          82.9563   -72.7913   -56.3826 H6            1 RES     
    2671 H6          82.5627   -74.9566   -57.6769 H6            1 RES     
    2672 H6          81.1318   -74.1884   -58.4573 H6            1 RES     
    2673 H6          82.6108   -72.4828   -59.5298 H6            1 RES     
    2674 H6          83.0168   -74.1741   -59.9920 H6            1 RES     
    2675 H6          84.5668   -72.4772   -57.9288 H6            1 RES     
    2676 H6          84.9150   -74.1982   -58.3730 H6            1 RES     
    2677 H6          85.0736   -72.8849   -59.5999 H6            1 RES     
    2678 H6          82.8113   -71.9271   -50.2991 H6            1 RES     
    2679 H6          84.0996   -72.3356   -49.2155 H6            1 RES     
    2680 H6          81.2246   -72.2352   -48.6990 H6            1 RES     
    2681 H6          81.6767   -73.9718   -48.5651 H6            1 RES     
    2682 H6          83.0487   -71.5802   -47.0963 H6            1 RES     
    2683 H6          83.5583   -73.2610   -47.1490 H6            1 RES     
    2684 H6          81.5843   -74.0844   -46.0482 H6            1 RES     
    2685 H6          82.6630   -73.0525   -45.0879 H6            1 RES     
    2686 H6          81.2187   -71.1400   -45.3067 H6            1 RES     
    2687 H6          80.0052   -72.0710   -46.2764 H6            1 RES     
    2688 H6          79.7080   -73.7052   -44.4465 H6            1 RES     
    2689 H6          80.9899   -72.9354   -43.4507 H6            1 RES     
    2690 H6          78.7107   -72.4012   -42.6690 H6            1 RES     
    2691 H6          78.3339   -71.5816   -44.2305 H6            1 RES     
    2692 H6          80.1957   -69.9173   -43.7388 H6            1 RES     
    2693 H6          78.9946   -69.9774   -42.4050 H6            1 RES     
    2694 H6          80.5758   -70.8206   -42.2189 H6            1 RES     
    2695 C0          85.9900   -76.8344   -48.8737 C0            1 RES     
    2696 C0          85.2116   -78.1515   -49.3270 C0            1 RES     
    2697 C0          85.9013   -79.3487   -48.5896 C0            1 RES     
    2698 C0          85.4933   -80.7544   -49.0751 C0            1 RES     
    2699 C0          86.1768   -81.8997   -48.3075 C0            1 RES     
    2700 C0          87.7142   -81.9262   -48.3755 C0            1 RES     
    2701 C0          88.3060   -81.9110   -49.7947 C0            1 RES     
    2702 C0          87.8189   -83.0764   -50.6738 C0            1 RES     
    2703 C0          88.4155   -83.0439   -52.0902 C0            1 RES     
    2704 C0          89.9348   -83.2895   -52.1059 C0            1 RES     
    2705 C0          90.5133   -83.3821   -53.5265 C0            1 RES     
    2706 C0          90.4147   -82.0699   -54.3048 C0            1 RES     
    2707 C0          83.6345   -78.3231   -49.3470 C0            1 RES     
    2708 C0          82.7941   -78.3637   -48.0393 C0            1 RES     
    2709 C0          81.9902   -77.0697   -47.8189 C0            1 RES     
    2710 C0          81.1825   -76.9801   -46.5346 C0            1 RES     
    2711 C0          79.9246   -77.8330   -46.4490 C0            1 RES     
    2712 C0          79.1994   -77.4388   -45.1461 C0            1 RES     
    2713 C0          77.8257   -78.0868   -44.9634 C0            1 RES     
    2714 C0          76.8042   -77.5796   -45.9824 C0            1 RES     
    2715 H6          86.3997   -76.9976   -47.8497 H6            1 RES     
    2716 H6          86.9290   -76.8540   -49.4720 H6            1 RES     
    2717 H6          85.4595   -78.2433   -50.4096 H6            1 RES     
    2718 H6          85.6891   -79.2753   -47.5011 H6            1 RES     
    2719 H6          86.9987   -79.2472   -48.7314 H6            1 RES     
    2720 H6          85.7018   -80.8423   -50.1620 H6            1 RES     
    2721 H6          84.4109   -80.9192   -48.9106 H6            1 RES     
    2722 H6          85.7822   -82.8578   -48.7085 H6            1 RES     
    2723 H6          85.8777   -81.8524   -47.2373 H6            1 RES     
    2724 H6          88.0625   -82.8391   -47.8445 H6            1 RES     
    2725 H6          88.1205   -81.0521   -47.8233 H6            1 RES     
    2726 H6          88.0559   -80.9491   -50.2913 H6            1 RES     
    2727 H6          89.4082   -81.9565   -49.6803 H6            1 RES     
    2728 H6          86.7173   -83.0031   -50.7891 H6            1 RES     
    2729 H6          88.0539   -84.0488   -50.1894 H6            1 RES     
    2730 H6          87.9279   -83.8511   -52.6790 H6            1 RES     
    2731 H6          88.1656   -82.0698   -52.5620 H6            1 RES     
    2732 H6          90.4731   -82.4904   -51.5558 H6            1 RES     
    2733 H6          90.1330   -84.2587   -51.5981 H6            1 RES     
    2734 H6          89.9995   -84.1906   -54.0906 H6            1 RES     
    2735 H6          91.5889   -83.6486   -53.4425 H6            1 RES     
    2736 H6          89.3582   -81.7763   -54.4686 H6            1 RES     
    2737 H6          90.9429   -81.2593   -53.7591 H6            1 RES     
    2738 H6          90.8920   -82.1971   -55.2991 H6            1 RES     
    2739 H6          83.4670   -79.3025   -49.8314 H6            1 RES     
    2740 H6          83.1383   -77.7062   -50.1196 H6            1 RES     
    2741 H6          82.0184   -79.1517   -48.1603 H6            1 RES     
    2742 H6          83.4236   -78.6476   -47.1718 H6            1 RES     
    2743 H6          81.3314   -76.8719   -48.6948 H6            1 RES     
    2744 H6          82.6689   -76.2303   -47.7163 H6            1 RES     
    2745 H6          81.8453   -77.1500   -45.6584 H6            1 RES     
    2746 H6          80.8086   -75.9432   -46.5095 H6            1 RES     
    2747 H6          79.2949   -77.5974   -47.3329 H6            1 RES     
    2748 H6          80.1718   -78.9150   -46.4534 H6            1 RES     
    2749 H6          79.8486   -77.7269   -44.2900 H6            1 RES     
    2750 H6          79.0563   -76.3345   -45.1024 H6            1 RES     
    2751 H6          77.4579   -77.8023   -43.9531 H6            1 RES     
    2752 H6          77.9146   -79.1902   -45.0111 H6            1 RES     
    2753 H6          77.0866   -77.8640   -47.0154 H6            1 RES     
    2754 H6          75.8126   -78.0237   -45.7589 H6            1 RES     
    2755 H6          76.7154   -76.4727   -45.9205 H6            1 RES     
    2756 C0          94.0138   -70.1336   -57.2311 C0            1 RES     
    2757 C1          93.3842   -70.2066   -55.8226 C1            1 RES     
    2758 C1          94.1546   -69.6042   -54.8798 C1            1 RES     
    2759 S2          93.5458   -69.7456   -53.3268 S2            1 RES     
    2760 C1          92.2234   -70.6729   -53.8583 C1            1 RES     
    2761 C1          92.2829   -70.8592   -55.2437 C1            1 RES     
    2762 C1          95.3294   -69.1192   -55.4941 C1            1 RES     
    2763 C1          95.3273   -69.4747   -56.8073 C1            1 RES     
    2764 C1          96.5208   -69.1545   -57.4433 C1            1 RES     
    2765 C1          97.3982   -68.5115   -56.5539 C1            1 RES     
    2766 S2          96.7230   -68.3550   -55.0037 S2            1 RES     
    2767 H3          91.5767   -71.4830   -55.7578 H3            1 RES     
    2768 H3          96.7430   -69.3762   -58.4802 H3            1 RES     
    2769 N4         100.4683   -66.4265   -57.0804 N4            1 RES     
    2770 C1          99.1658   -66.7710   -56.8593 C1            1 RES     
    2771 C1          98.7754   -68.1211   -56.8338 C1            1 RES     
    2772 C1          99.7591   -69.0944   -57.0177 C1            1 RES     
    2773 N4          99.5271   -70.4309   -56.9592 N4            1 RES     
    2774 S2         101.0395   -71.0594   -57.1816 S2            1 RES     
    2775 N4         102.0007   -69.7236   -57.3558 N4            1 RES     
    2776 C1         101.1078   -68.7114   -57.2259 C1            1 RES     
    2777 C1         101.4424   -67.3605   -57.2689 C1            1 RES     
    2778 H5          98.4260   -65.9890   -56.7110 H5            1 RES     
    2779 C0          93.3436   -69.2409   -58.3341 C0            1 RES     
    2780 C0          93.2719   -67.6732   -58.4720 C0            1 RES     
    2781 C0          92.3549   -67.4140   -59.7187 C0            1 RES     
    2782 C0          92.1604   -65.9532   -60.1435 C0            1 RES     
    2783 C0          91.1996   -65.8155   -61.3480 C0            1 RES     
    2784 C0          91.6631   -66.4888   -62.6586 C0            1 RES     
    2785 C0          93.0530   -66.0529   -63.1546 C0            1 RES     
    2786 C0          93.1643   -64.5345   -63.3793 C0            1 RES     
    2787 C0          94.5681   -64.0956   -63.8204 C0            1 RES     
    2788 C0          94.9504   -64.6062   -65.2199 C0            1 RES     
    2789 C0          96.3080   -64.0671   -65.6980 C0            1 RES     
    2790 C0          97.4847   -64.5712   -64.8616 C0            1 RES     
    2791 C0          92.8471   -66.8078   -57.2409 C0            1 RES     
    2792 C0          91.4026   -66.9511   -56.6702 C0            1 RES     
    2793 C0          91.4894   -67.3861   -55.2042 C0            1 RES     
    2794 C0          90.2198   -67.9028   -54.5335 C0            1 RES     
    2795 C0          89.2319   -66.8502   -54.0523 C0            1 RES     
    2796 C0          88.0584   -67.5842   -53.3700 C0            1 RES     
    2797 C0          87.0661   -66.6608   -52.6595 C0            1 RES     
    2798 C0          87.6778   -65.9886   -51.4286 C0            1 RES     
    2799 H6          92.3313   -69.5501   -58.3923 H6            1 RES     
    2800 H6          93.8421   -69.5548   -59.2790 H6            1 RES     
    2801 H6          94.3020   -67.3284   -58.7144 H6            1 RES     
    2802 H6          91.3445   -67.8357   -59.5244 H6            1 RES     
    2803 H6          92.7891   -67.9669   -60.5790 H6            1 RES     
    2804 H6          93.1414   -65.4883   -60.3702 H6            1 RES     
    2805 H6          91.6921   -65.3903   -59.3110 H6            1 RES     
    2806 H6          91.0381   -64.7343   -61.5384 H6            1 RES     
    2807 H6          90.2073   -66.2387   -61.0761 H6            1 RES     
    2808 H6          90.9106   -66.2632   -63.4468 H6            1 RES     
    2809 H6          91.6719   -67.5923   -62.5298 H6            1 RES     
    2810 H6          93.8213   -66.3746   -62.4202 H6            1 RES     
    2811 H6          93.2475   -66.5913   -64.1055 H6            1 RES     
    2812 H6          92.9655   -64.0150   -62.4199 H6            1 RES     
    2813 H6          92.4084   -64.1979   -64.1223 H6            1 RES     
    2814 H6          94.5802   -62.9840   -63.8425 H6            1 RES     
    2815 H6          95.3005   -64.4365   -63.0589 H6            1 RES     
    2816 H6          94.9773   -65.7153   -65.2450 H6            1 RES     
    2817 H6          94.1763   -64.2577   -65.9380 H6            1 RES     
    2818 H6          96.2954   -62.9553   -65.6925 H6            1 RES     
    2819 H6          96.4645   -64.4052   -66.7451 H6            1 RES     
    2820 H6          97.4146   -64.2206   -63.8122 H6            1 RES     
    2821 H6          97.5184   -65.6813   -64.8781 H6            1 RES     
    2822 H6          98.4324   -64.1807   -65.2880 H6            1 RES     
    2823 H6          92.9755   -65.7403   -57.5207 H6            1 RES     
    2824 H6          93.6100   -66.9398   -56.4439 H6            1 RES     
    2825 H6          90.8629   -65.9784   -56.7125 H6            1 RES     
    2826 H6          90.8293   -67.6905   -57.2655 H6            1 RES     
    2827 H6          92.0076   -66.6350   -54.5715 H6            1 RES     
    2828 H6          92.1109   -68.2554   -55.2432 H6            1 RES     
    2829 H6          89.7342   -68.6242   -55.1954 H6            1 RES     
    2830 H6          90.5491   -68.4600   -53.6270 H6            1 RES     
    2831 H6          89.7692   -66.2031   -53.3271 H6            1 RES     
    2832 H6          88.8601   -66.2274   -54.8932 H6            1 RES     
    2833 H6          87.5148   -68.1629   -54.1509 H6            1 RES     
    2834 H6          88.4390   -68.3119   -52.6176 H6            1 RES     
    2835 H6          86.2159   -67.2857   -52.3075 H6            1 RES     
    2836 H6          86.6738   -65.8998   -53.3665 H6            1 RES     
    2837 H6          88.5117   -65.3141   -51.7060 H6            1 RES     
    2838 H6          86.9028   -65.3872   -50.9115 H6            1 RES     
    2839 H6          88.0546   -66.7593   -50.7195 H6            1 RES     
    2840 C0          94.1667   -71.6369   -57.6920 C0            1 RES     
    2841 C0          93.3578   -72.3328   -58.8784 C0            1 RES     
    2842 C0          93.4190   -73.8745   -58.6106 C0            1 RES     
    2843 C0          92.9338   -74.7715   -59.7674 C0            1 RES     
    2844 C0          92.9890   -76.2767   -59.4520 C0            1 RES     
    2845 C0          94.3823   -76.8393   -59.1186 C0            1 RES     
    2846 C0          95.4709   -76.5523   -60.1662 C0            1 RES     
    2847 C0          95.1228   -77.0766   -61.5704 C0            1 RES     
    2848 C0          96.2183   -76.7773   -62.6065 C0            1 RES     
    2849 C0          97.5264   -77.5408   -62.3324 C0            1 RES     
    2850 C0          98.5797   -77.3414   -63.4333 C0            1 RES     
    2851 C0          99.0878   -75.9027   -63.5289 C0            1 RES     
    2852 C0          91.9198   -71.8963   -59.3869 C0            1 RES     
    2853 C0          90.6475   -72.0756   -58.5111 C0            1 RES     
    2854 C0          90.1300   -70.7394   -57.9487 C0            1 RES     
    2855 C0          88.9249   -70.8102   -57.0254 C0            1 RES     
    2856 C0          87.5794   -71.1157   -57.6683 C0            1 RES     
    2857 C0          86.5080   -70.9600   -56.5697 C0            1 RES     
    2858 C0          85.0665   -71.0797   -57.0675 C0            1 RES     
    2859 C0          84.6667   -69.9150   -57.9746 C0            1 RES     
    2860 H6          94.0945   -72.2820   -56.7856 H6            1 RES     
    2861 H6          95.2354   -71.7909   -57.9644 H6            1 RES     
    2862 H6          93.9836   -72.1285   -59.7777 H6            1 RES     
    2863 H6          92.8187   -74.1097   -57.7053 H6            1 RES     
    2864 H6          94.4768   -74.1399   -58.3977 H6            1 RES     
    2865 H6          93.5269   -74.5481   -60.6789 H6            1 RES     
    2866 H6          91.8664   -74.5742   -59.9857 H6            1 RES     
    2867 H6          92.5819   -76.8211   -60.3307 H6            1 RES     
    2868 H6          92.3126   -76.4963   -58.5969 H6            1 RES     
    2869 H6          94.2827   -77.9391   -58.9876 H6            1 RES     
    2870 H6          94.7221   -76.4240   -58.1459 H6            1 RES     
    2871 H6          95.6556   -75.4581   -60.2198 H6            1 RES     
    2872 H6          96.3998   -77.0350   -59.8000 H6            1 RES     
    2873 H6          94.2009   -76.5698   -61.9245 H6            1 RES     
    2874 H6          94.9270   -78.1702   -61.5358 H6            1 RES     
    2875 H6          95.8353   -77.0925   -63.6015 H6            1 RES     
    2876 H6          96.3962   -75.6813   -62.6335 H6            1 RES     
    2877 H6          97.9682   -77.2379   -61.3608 H6            1 RES     
    2878 H6          97.2893   -78.6261   -62.2860 H6            1 RES     
    2879 H6          98.1633   -77.6566   -64.4147 H6            1 RES     
    2880 H6          99.4479   -77.9948   -63.2002 H6            1 RES     
    2881 H6          98.2740   -75.2054   -63.8130 H6            1 RES     
    2882 H6          99.5248   -75.5846   -62.5585 H6            1 RES     
    2883 H6          99.8759   -75.8437   -64.3088 H6            1 RES     
    2884 H6          91.7433   -72.5135   -60.2868 H6            1 RES     
    2885 H6          91.9167   -70.9144   -59.8965 H6            1 RES     
    2886 H6          89.8279   -72.4303   -59.1742 H6            1 RES     
    2887 H6          90.8061   -72.8514   -57.7349 H6            1 RES     
    2888 H6          89.9294   -70.0244   -58.7786 H6            1 RES     
    2889 H6          90.8816   -70.2985   -57.3034 H6            1 RES     
    2890 H6          89.1351   -71.5027   -56.1816 H6            1 RES     
    2891 H6          88.8110   -69.7862   -56.6330 H6            1 RES     
    2892 H6          87.4162   -70.3759   -58.4804 H6            1 RES     
    2893 H6          87.5621   -72.1394   -58.0968 H6            1 RES     
    2894 H6          86.6878   -71.7427   -55.8001 H6            1 RES     
    2895 H6          86.6078   -69.9687   -56.0705 H6            1 RES     
    2896 H6          84.4047   -71.0485   -56.1742 H6            1 RES     
    2897 H6          84.9201   -72.0490   -57.5840 H6            1 RES     
    2898 H6          85.2612   -69.9069   -58.9097 H6            1 RES     
    2899 H6          83.5954   -70.0126   -58.2452 H6            1 RES     
    2900 H6          84.8084   -68.9477   -57.4444 H6            1 RES     
    2901 C0         106.0936   -65.8983   -59.6788 C0            1 RES     
    2902 C1         104.9626   -66.2177   -58.6764 C1            1 RES     
    2903 C1         105.4140   -66.3056   -57.3982 C1            1 RES     
    2904 S2         104.2298   -66.7416   -56.2982 S2            1 RES     
    2905 C1         103.0524   -66.8745   -57.5176 C1            1 RES     
    2906 C1         103.6078   -66.5781   -58.7672 C1            1 RES     
    2907 C1         106.8113   -66.1046   -57.3942 C1            1 RES     
    2908 C1         107.2459   -65.9568   -58.6749 C1            1 RES     
    2909 C1         108.6318   -65.8976   -58.7589 C1            1 RES     
    2910 C1         109.2085   -65.9712   -57.4798 C1            1 RES     
    2911 S2         108.0322   -66.1245   -56.2648 S2            1 RES     
    2912 H3         103.0409   -66.6805   -59.6729 H3            1 RES     
    2913 H3         109.1880   -65.8120   -59.6848 H3            1 RES     
    2914 N4         112.6178   -65.1127   -56.1798 N4            1 RES     
    2915 C1         111.2920   -65.0095   -56.4889 C1            1 RES     
    2916 C1         110.6344   -66.0416   -57.1804 C1            1 RES     
    2917 C1         111.3690   -67.1793   -57.5194 C1            1 RES     
    2918 N4         110.8428   -68.2690   -58.1351 N4            1 RES     
    2919 S2         112.1410   -69.2891   -58.2122 S2            1 RES     
    2920 N4         113.3634   -68.4271   -57.5042 N4            1 RES     
    2921 C1         112.7397   -67.2705   -57.1698 C1            1 RES     
    2922 C1         113.3545   -66.2112   -56.5075 C1            1 RES     
    2923 H5         110.7466   -64.1143   -56.2028 H5            1 RES     
    2924 C0         106.1259   -64.5003   -60.3909 C0            1 RES     
    2925 C0         106.4633   -63.0720   -59.8180 C0            1 RES     
    2926 C0         106.1912   -62.0811   -61.0039 C0            1 RES     
    2927 C0         106.5080   -60.6011   -60.7561 C0            1 RES     
    2928 C0         106.1534   -59.7137   -61.9725 C0            1 RES     
    2929 C0         106.9321   -60.0120   -63.2726 C0            1 RES     
    2930 C0         108.4642   -59.9732   -63.1336 C0            1 RES     
    2931 C0         108.9882   -58.6245   -62.6089 C0            1 RES     
    2932 C0         110.5116   -58.6072   -62.4180 C0            1 RES     
    2933 C0         111.2889   -58.7044   -63.7416 C0            1 RES     
    2934 C0         112.8079   -58.5708   -63.5490 C0            1 RES     
    2935 C0         113.4185   -59.7265   -62.7555 C0            1 RES     
    2936 C0         105.7927   -62.5945   -58.4885 C0            1 RES     
    2937 C0         104.2475   -62.3864   -58.4459 C0            1 RES     
    2938 C0         103.6534   -63.3009   -57.3704 C0            1 RES     
    2939 C0         102.1423   -63.5140   -57.3656 C0            1 RES     
    2940 C0         101.3048   -62.4092   -56.7385 C0            1 RES     
    2941 C0          99.8269   -62.8492   -56.7968 C0            1 RES     
    2942 C0          98.8668   -61.9337   -56.0338 C0            1 RES     
    2943 C0          99.0789   -62.0027   -54.5200 C0            1 RES     
    2944 H6         105.1765   -64.3763   -60.8459 H6            1 RES     
    2945 H6         106.8720   -64.6273   -61.2075 H6            1 RES     
    2946 H6         107.5543   -63.0678   -59.5983 H6            1 RES     
    2947 H6         105.1196   -62.1424   -61.2942 H6            1 RES     
    2948 H6         106.7940   -62.4204   -61.8734 H6            1 RES     
    2949 H6         107.5757   -60.4805   -60.4816 H6            1 RES     
    2950 H6         105.8879   -60.2311   -59.9147 H6            1 RES     
    2951 H6         106.3234   -58.6547   -61.6880 H6            1 RES     
    2952 H6         105.0670   -59.8098   -62.1926 H6            1 RES     
    2953 H6         106.6197   -59.2688   -64.0398 H6            1 RES     
    2954 H6         106.6450   -61.0130   -63.6598 H6            1 RES     
    2955 H6         108.7906   -60.7864   -62.4516 H6            1 RES     
    2956 H6         108.8916   -60.1807   -64.1365 H6            1 RES     
    2957 H6         108.5493   -58.4347   -61.6083 H6            1 RES     
    2958 H6         108.6795   -57.7999   -63.2882 H6            1 RES     
    2959 H6         110.7774   -57.6438   -61.9308 H6            1 RES     
    2960 H6         110.7912   -59.4333   -61.7310 H6            1 RES     
    2961 H6         111.0770   -59.6637   -64.2577 H6            1 RES     
    2962 H6         110.9569   -57.8715   -64.3990 H6            1 RES     
    2963 H6         113.0408   -57.6076   -63.0446 H6            1 RES     
    2964 H6         113.2836   -58.5582   -64.5534 H6            1 RES     
    2965 H6         113.0218   -59.7609   -61.7208 H6            1 RES     
    2966 H6         113.2092   -60.6922   -63.2629 H6            1 RES     
    2967 H6         114.5184   -59.5890   -62.6937 H6            1 RES     
    2968 H6         106.2536   -61.6226   -58.2104 H6            1 RES     
    2969 H6         106.1318   -63.2636   -57.6688 H6            1 RES     
    2970 H6         103.9978   -61.3338   -58.1835 H6            1 RES     
    2971 H6         103.8054   -62.6093   -59.4382 H6            1 RES     
    2972 H6         104.0342   -63.0606   -56.3554 H6            1 RES     
    2973 H6         104.0309   -64.2660   -57.6339 H6            1 RES     
    2974 H6         101.8088   -63.7304   -58.3835 H6            1 RES     
    2975 H6         101.9572   -64.4294   -56.7587 H6            1 RES     
    2976 H6         101.6434   -62.2977   -55.6866 H6            1 RES     
    2977 H6         101.4409   -61.4442   -57.2710 H6            1 RES     
    2978 H6          99.5197   -62.8800   -57.8668 H6            1 RES     
    2979 H6          99.7101   -63.8774   -56.3848 H6            1 RES     
    2980 H6          97.8313   -62.2838   -56.2395 H6            1 RES     
    2981 H6          98.9626   -60.8881   -56.3950 H6            1 RES     
    2982 H6         100.0816   -61.6296   -54.2326 H6            1 RES     
    2983 H6          98.3173   -61.3781   -54.0105 H6            1 RES     
    2984 H6          98.9662   -63.0516   -54.1655 H6            1 RES     
    2985 C0         106.0779   -67.0936   -60.7116 C0            1 RES     
    2986 C0         105.6671   -66.9882   -62.2499 C0            1 RES     
    2987 C0         105.2750   -68.4350   -62.7031 C0            1 RES     
    2988 C0         105.0971   -68.6322   -64.2221 C0            1 RES     
    2989 C0         104.6891   -70.0617   -64.6199 C0            1 RES     
    2990 C0         105.6775   -71.1734   -64.2247 C0            1 RES     
    2991 C0         107.1239   -70.9621   -64.7021 C0            1 RES     
    2992 C0         107.2480   -70.8020   -66.2276 C0            1 RES     
    2993 C0         108.6988   -70.5865   -66.6878 C0            1 RES     
    2994 C0         109.5899   -71.8201   -66.4564 C0            1 RES     
    2995 C0         111.0064   -71.6531   -67.0283 C0            1 RES     
    2996 C0         111.8162   -70.5633   -66.3256 C0            1 RES     
    2997 C0         104.6796   -65.9085   -62.8630 C0            1 RES     
    2998 C0         103.1604   -65.9000   -62.5315 C0            1 RES     
    2999 C0         102.7738   -64.7507   -61.5834 C0            1 RES     
    3000 C0         101.3200   -64.6896   -61.1446 C0            1 RES     
    3001 C0         100.3034   -64.2382   -62.1838 C0            1 RES     
    3002 C0          98.9504   -64.0911   -61.4581 C0            1 RES     
    3003 C0          97.8323   -63.4942   -62.3147 C0            1 RES     
    3004 C0          98.0894   -62.0280   -62.6658 C0            1 RES     
    3005 H6         105.5148   -67.9378   -60.2498 H6            1 RES     
    3006 H6         107.1047   -67.5240   -60.7331 H6            1 RES     
    3007 H6         106.6239   -66.7301   -62.7598 H6            1 RES     
    3008 H6         104.3318   -68.7313   -62.1953 H6            1 RES     
    3009 H6         106.0770   -69.1255   -62.3641 H6            1 RES     
    3010 H6         106.0337   -68.3413   -64.7424 H6            1 RES     
    3011 H6         104.2736   -67.9952   -64.5990 H6            1 RES     
    3012 H6         104.5498   -70.0790   -65.7219 H6            1 RES     
    3013 H6         103.7011   -70.2992   -64.1678 H6            1 RES     
    3014 H6         105.2935   -72.1323   -64.6367 H6            1 RES     
    3015 H6         105.6912   -71.2755   -63.1186 H6            1 RES     
    3016 H6         107.5523   -70.0660   -64.2043 H6            1 RES     
    3017 H6         107.7026   -71.8460   -64.3647 H6            1 RES     
    3018 H6         106.6762   -69.9040   -66.5420 H6            1 RES     
    3019 H6         106.8174   -71.6869   -66.7442 H6            1 RES     
    3020 H6         108.6775   -70.3744   -67.7790 H6            1 RES     
    3021 H6         109.1111   -69.6955   -66.1683 H6            1 RES     
    3022 H6         109.6701   -72.0562   -65.3753 H6            1 RES     
    3023 H6         109.1196   -72.6868   -66.9701 H6            1 RES     
    3024 H6         110.9498   -71.4335   -68.1166 H6            1 RES     
    3025 H6         111.5452   -72.6162   -66.8974 H6            1 RES     
    3026 H6         111.3556   -69.5646   -66.4657 H6            1 RES     
    3027 H6         111.8960   -70.7842   -65.2399 H6            1 RES     
    3028 H6         112.8388   -70.5314   -66.7568 H6            1 RES     
    3029 H6         104.7384   -66.0658   -63.9557 H6            1 RES     
    3030 H6         105.0942   -64.8830   -62.8540 H6            1 RES     
    3031 H6         102.6103   -65.6769   -63.4722 H6            1 RES     
    3032 H6         102.8255   -66.8967   -62.1793 H6            1 RES     
    3033 H6         103.0787   -63.7726   -62.0200 H6            1 RES     
    3034 H6         103.2892   -64.8682   -60.6368 H6            1 RES     
    3035 H6         101.0231   -65.6566   -60.6835 H6            1 RES     
    3036 H6         101.2912   -63.8989   -60.3768 H6            1 RES     
    3037 H6         100.6402   -63.2586   -62.5841 H6            1 RES     
    3038 H6         100.2292   -64.9681   -63.0167 H6            1 RES     
    3039 H6          98.6355   -65.0992   -61.1090 H6            1 RES     
    3040 H6          99.0632   -63.4439   -60.5579 H6            1 RES     
    3041 H6          96.8979   -63.5337   -61.7128 H6            1 RES     
    3042 H6          97.6895   -64.0993   -63.2319 H6            1 RES     
    3043 H6          98.9888   -61.9156   -63.3032 H6            1 RES     
    3044 H6          97.2175   -61.6263   -63.2217 H6            1 RES     
    3045 H6          98.2221   -61.4277   -61.7390 H6            1 RES     
    3046 C0         118.7762   -65.8189   -56.6798 C0            1 RES     
    3047 C1         117.3025   -66.0271   -56.2666 C1            1 RES     
    3048 C1         117.1845   -66.7103   -55.0985 C1            1 RES     
    3049 S2         115.5991   -67.0334   -54.6689 S2            1 RES     
    3050 C1         114.9970   -66.2952   -56.0772 C1            1 RES     
    3051 C1         116.0488   -65.8107   -56.8625 C1            1 RES     
    3052 C1         118.4748   -67.0499   -54.6376 C1            1 RES     
    3053 C1         119.3980   -66.6387   -55.5483 C1            1 RES     
    3054 C1         120.6814   -67.0662   -55.2296 C1            1 RES     
    3055 C1         120.6780   -67.7833   -54.0212 C1            1 RES     
    3056 S2         119.1172   -67.9050   -53.3637 S2            1 RES     
    3057 H3         115.8754   -65.3782   -57.8295 H3            1 RES     
    3058 H3         121.5601   -66.8760   -55.8341 H3            1 RES     
    3059 N4         123.4017   -68.7403   -51.6304 N4            1 RES     
    3060 C1         122.3622   -68.0585   -52.1950 C1            1 RES     
    3061 C1         121.8179   -68.4701   -53.4239 C1            1 RES     
    3062 C1         122.3546   -69.6048   -54.0348 C1            1 RES     
    3063 N4         121.8850   -70.1405   -55.1906 N4            1 RES     
    3064 S2         122.8483   -71.4706   -55.3773 S2            1 RES     
    3065 N4         123.8526   -71.4186   -54.0632 N4            1 RES     
    3066 C1         123.4209   -70.3066   -53.4185 C1            1 RES     
    3067 C1         123.9446   -69.8458   -52.2134 C1            1 RES     
    3068 H5         121.9615   -67.1843   -51.6893 H5            1 RES     
    3069 C0         119.3942   -64.3768   -56.6458 C0            1 RES     
    3070 C0         119.7871   -63.4648   -55.4228 C0            1 RES     
    3071 C0         120.2291   -62.0990   -56.0567 C0            1 RES     
    3072 C0         120.7425   -61.0222   -55.0928 C0            1 RES     
    3073 C0         121.0998   -59.7052   -55.8211 C0            1 RES     
    3074 C0         122.2391   -59.7986   -56.8599 C0            1 RES     
    3075 C0         123.5609   -60.3745   -56.3219 C0            1 RES     
    3076 C0         124.1216   -59.5828   -55.1271 C0            1 RES     
    3077 C0         125.4105   -60.1919   -54.5569 C0            1 RES     
    3078 C0         126.6022   -60.1031   -55.5251 C0            1 RES     
    3079 C0         127.9123   -60.6107   -54.9020 C0            1 RES     
    3080 C0         127.8900   -62.1072   -54.5883 C0            1 RES     
    3081 C0         118.7726   -63.2662   -54.2495 C0            1 RES     
    3082 C0         117.4225   -62.5351   -54.5244 C0            1 RES     
    3083 C0         116.2676   -63.4793   -54.1774 C0            1 RES     
    3084 C0         114.8695   -63.1115   -54.6661 C0            1 RES     
    3085 C0         114.1205   -62.0671   -53.8514 C0            1 RES     
    3086 C0         112.7266   -61.8855   -54.4880 C0            1 RES     
    3087 C0         111.7729   -61.0067   -53.6753 C0            1 RES     
    3088 C0         111.3530   -61.6674   -52.3606 C0            1 RES     
    3089 H6         118.7527   -63.7646   -57.2266 H6            1 RES     
    3090 H6         120.3526   -64.4776   -57.2035 H6            1 RES     
    3091 H6         120.6758   -63.9367   -54.9474 H6            1 RES     
    3092 H6         119.3727   -61.6590   -56.6130 H6            1 RES     
    3093 H6         121.0332   -62.3123   -56.7932 H6            1 RES     
    3094 H6         121.6147   -61.4042   -54.5242 H6            1 RES     
    3095 H6         119.9408   -60.7664   -54.3709 H6            1 RES     
    3096 H6         121.3746   -58.9510   -55.0549 H6            1 RES     
    3097 H6         120.1951   -59.3141   -56.3372 H6            1 RES     
    3098 H6         122.4258   -58.7769   -57.2596 H6            1 RES     
    3099 H6         121.9129   -60.4243   -57.7181 H6            1 RES     
    3100 H6         123.4045   -61.4324   -56.0229 H6            1 RES     
    3101 H6         124.2900   -60.3635   -57.1585 H6            1 RES     
    3102 H6         123.3792   -59.6040   -54.3035 H6            1 RES     
    3103 H6         124.2952   -58.5225   -55.4140 H6            1 RES     
    3104 H6         125.6701   -59.6255   -53.6360 H6            1 RES     
    3105 H6         125.2075   -61.2456   -54.2717 H6            1 RES     
    3106 H6         126.4030   -60.6757   -56.4546 H6            1 RES     
    3107 H6         126.7483   -59.0346   -55.7958 H6            1 RES     
    3108 H6         128.1357   -60.0384   -53.9752 H6            1 RES     
    3109 H6         128.7338   -60.4268   -55.6276 H6            1 RES     
    3110 H6         127.1223   -62.3493   -53.8260 H6            1 RES     
    3111 H6         127.6882   -62.6892   -55.5126 H6            1 RES     
    3112 H6         128.8781   -62.4127   -54.1848 H6            1 RES     
    3113 H6         119.2902   -62.6917   -53.4518 H6            1 RES     
    3114 H6         118.6054   -64.2518   -53.7646 H6            1 RES     
    3115 H6         117.3299   -61.6251   -53.8901 H6            1 RES     
    3116 H6         117.3679   -62.2226   -55.5870 H6            1 RES     
    3117 H6         116.2624   -63.7622   -53.1036 H6            1 RES     
    3118 H6         116.4941   -64.3602   -54.7395 H6            1 RES     
    3119 H6         114.9231   -62.8242   -55.7191 H6            1 RES     
    3120 H6         114.2632   -64.0442   -54.6115 H6            1 RES     
    3121 H6         114.0347   -62.4585   -52.8156 H6            1 RES     
    3122 H6         114.6647   -61.0992   -53.8330 H6            1 RES     
    3123 H6         112.8654   -61.4296   -55.4945 H6            1 RES     
    3124 H6         112.2329   -62.8734   -54.6326 H6            1 RES     
    3125 H6         110.8516   -60.8587   -54.2807 H6            1 RES     
    3126 H6         112.2318   -60.0138   -53.4850 H6            1 RES     
    3127 H6         112.2180   -61.8120   -51.6838 H6            1 RES     
    3128 H6         110.6116   -61.0251   -51.8435 H6            1 RES     
    3129 H6         110.8809   -62.6549   -52.5625 H6            1 RES     
    3130 C0         118.9026   -66.4886   -58.1050 C0            1 RES     
    3131 C0         119.1629   -65.7152   -59.4762 C0            1 RES     
    3132 C0         118.6702   -66.6646   -60.6199 C0            1 RES     
    3133 C0         119.0636   -66.2446   -62.0506 C0            1 RES     
    3134 C0         118.5388   -67.1925   -63.1433 C0            1 RES     
    3135 C0         119.0198   -68.6516   -63.0502 C0            1 RES     
    3136 C0         120.5451   -68.8338   -62.9820 C0            1 RES     
    3137 C0         121.2899   -68.2136   -64.1773 C0            1 RES     
    3138 C0         122.8135   -68.3999   -64.0915 C0            1 RES     
    3139 C0         123.2449   -69.8719   -64.2185 C0            1 RES     
    3140 C0         124.7708   -70.0488   -64.2588 C0            1 RES     
    3141 C0         125.4594   -69.6471   -62.9544 C0            1 RES     
    3142 C0         118.7611   -64.2087   -59.7694 C0            1 RES     
    3143 C0         117.2766   -63.7594   -59.8816 C0            1 RES     
    3144 C0         116.8141   -62.9528   -58.6550 C0            1 RES     
    3145 C0         115.3577   -62.5190   -58.6347 C0            1 RES     
    3146 C0         114.9579   -61.3974   -59.5830 C0            1 RES     
    3147 C0         113.4979   -61.0256   -59.2528 C0            1 RES     
    3148 C0         112.9681   -59.8042   -60.0062 C0            1 RES     
    3149 C0         113.6602   -58.5104   -59.5747 C0            1 RES     
    3150 H6         118.0317   -67.1713   -58.2411 H6            1 RES     
    3151 H6         119.7324   -67.2291   -58.0487 H6            1 RES     
    3152 H6         120.2743   -65.6664   -59.5431 H6            1 RES     
    3153 H6         117.5633   -66.7507   -60.5686 H6            1 RES     
    3154 H6         119.1001   -67.6721   -60.4330 H6            1 RES     
    3155 H6         120.1684   -66.1566   -62.1167 H6            1 RES     
    3156 H6         118.6175   -65.2623   -62.2996 H6            1 RES     
    3157 H6         118.8430   -66.7754   -64.1271 H6            1 RES     
    3158 H6         117.4267   -67.1920   -63.1247 H6            1 RES     
    3159 H6         118.6262   -69.1967   -63.9359 H6            1 RES     
    3160 H6         118.5753   -69.1272   -62.1499 H6            1 RES     
    3161 H6         120.9308   -68.3888   -62.0399 H6            1 RES     
    3162 H6         120.7335   -69.9261   -62.9425 H6            1 RES     
    3163 H6         121.1018   -67.1196   -64.1890 H6            1 RES     
    3164 H6         120.9122   -68.6416   -65.1309 H6            1 RES     
    3165 H6         123.2696   -67.8315   -64.9312 H6            1 RES     
    3166 H6         123.1750   -67.9608   -63.1374 H6            1 RES     
    3167 H6         122.8400   -70.4790   -63.3828 H6            1 RES     
    3168 H6         122.8345   -70.2707   -65.1719 H6            1 RES     
    3169 H6         125.1960   -69.4622   -65.1019 H6            1 RES     
    3170 H6         124.9870   -71.1235   -64.4416 H6            1 RES     
    3171 H6         125.3245   -68.5672   -62.7428 H6            1 RES     
    3172 H6         125.0558   -70.2426   -62.1079 H6            1 RES     
    3173 H6         126.5486   -69.8451   -63.0392 H6            1 RES     
    3174 H6         119.2075   -63.9884   -60.7565 H6            1 RES     
    3175 H6         119.3549   -63.4778   -59.1890 H6            1 RES     
    3176 H6         117.2041   -63.0399   -60.7268 H6            1 RES     
    3177 H6         116.6187   -64.6195   -60.1202 H6            1 RES     
    3178 H6         117.4744   -62.0686   -58.5045 H6            1 RES     
    3179 H6         116.8768   -63.5704   -57.7660 H6            1 RES     
    3180 H6         114.6975   -63.4051   -58.7571 H6            1 RES     
    3181 H6         115.2059   -62.0910   -57.6301 H6            1 RES     
    3182 H6         115.6327   -60.5362   -59.3926 H6            1 RES     
    3183 H6         115.0568   -61.7128   -60.6425 H6            1 RES     
    3184 H6         112.8565   -61.9017   -59.4939 H6            1 RES     
    3185 H6         113.3888   -60.8191   -58.1631 H6            1 RES     
    3186 H6         111.8890   -59.7041   -59.7561 H6            1 RES     
    3187 H6         113.0665   -59.9574   -61.0992 H6            1 RES     
    3188 H6         114.7382   -58.5223   -59.8311 H6            1 RES     
    3189 H6         113.1890   -57.6517   -60.0955 H6            1 RES     
    3190 H6         113.5481   -58.3608   -58.4783 H6            1 RES     
    3191 C0         128.9392   -71.4336   -50.7604 C0            1 RES     
    3192 C1         127.4153   -71.2164   -50.8890 C1            1 RES     
    3193 C1         126.7002   -72.1672   -50.2335 C1            1 RES     
    3194 S2         125.0448   -72.0141   -50.4294 S2            1 RES     
    3195 C1         125.2234   -70.6689   -51.4538 C1            1 RES     
    3196 C1         126.5779   -70.3642   -51.6279 C1            1 RES     
    3197 C1         127.5960   -73.0927   -49.6558 C1            1 RES     
    3198 C1         128.8687   -72.7609   -50.0037 C1            1 RES     
    3199 C1         129.7945   -73.7105   -49.5888 C1            1 RES     
    3200 C1         129.1586   -74.7466   -48.8842 C1            1 RES     
    3201 S2         127.4802   -74.5072   -48.7882 S2            1 RES     
    3202 H3         126.8983   -69.5927   -52.3020 H3            1 RES     
    3203 H3         130.8584   -73.6591   -49.7874 H3            1 RES     
    3204 N4         130.4400   -77.3977   -46.5648 N4            1 RES     
    3205 C1         129.8846   -76.2327   -47.0103 C1            1 RES     
    3206 C1         129.7896   -75.9639   -48.3867 C1            1 RES     
    3207 C1         130.2571   -76.9295   -49.2799 C1            1 RES     
    3208 N4         130.1727   -76.8206   -50.6307 N4            1 RES     
    3209 S2         130.8111   -78.2580   -51.1388 S2            1 RES     
    3210 N4         131.2036   -79.0354   -49.7317 N4            1 RES     
    3211 C1         130.8116   -78.1395   -48.7924 C1            1 RES     
    3212 C1         130.9084   -78.3500   -47.4194 C1            1 RES     
    3213 H5         129.5220   -75.5056   -46.2888 H5            1 RES     
    3214 C0         129.7970   -70.4260   -49.9169 C0            1 RES     
    3215 C0         129.8699   -70.2050   -48.3587 C0            1 RES     
    3216 C0         130.8158   -68.9679   -48.1652 C0            1 RES     
    3217 C0         131.1345   -68.5591   -46.7218 C0            1 RES     
    3218 C0         132.0311   -67.3005   -46.6529 C0            1 RES     
    3219 C0         133.4351   -67.4394   -47.2818 C0            1 RES     
    3220 C0         134.2764   -68.6071   -46.7369 C0            1 RES     
    3221 C0         134.4835   -68.5417   -45.2133 C0            1 RES     
    3222 C0         135.2754   -69.7373   -44.6647 C0            1 RES     
    3223 C0         136.7389   -69.7624   -45.1371 C0            1 RES     
    3224 C0         137.5515   -70.8963   -44.4920 C0            1 RES     
    3225 C0         137.0769   -72.2893   -44.9075 C0            1 RES     
    3226 C0         128.5479   -70.0674   -47.5351 C0            1 RES     
    3227 C0         127.6125   -68.8462   -47.7928 C0            1 RES     
    3228 C0         126.2361   -69.3588   -48.2272 C0            1 RES     
    3229 C0         125.2613   -68.3598   -48.8441 C0            1 RES     
    3230 C0         124.5044   -67.4649   -47.8737 C0            1 RES     
    3231 C0         123.5499   -66.5773   -48.6998 C0            1 RES     
    3232 C0         122.5744   -65.7497   -47.8598 C0            1 RES     
    3233 C0         121.5373   -66.6212   -47.1483 C0            1 RES     
    3234 H6         129.5879   -69.4613   -50.3033 H6            1 RES     
    3235 H6         130.8491   -70.6714   -50.1864 H6            1 RES     
    3236 H6         130.3723   -71.1026   -47.9339 H6            1 RES     
    3237 H6         130.3670   -68.0817   -48.6650 H6            1 RES     
    3238 H6         131.7754   -69.1921   -48.6785 H6            1 RES     
    3239 H6         131.6054   -69.4052   -46.1811 H6            1 RES     
    3240 H6         130.1923   -68.2940   -46.2010 H6            1 RES     
    3241 H6         132.1429   -67.0146   -45.5866 H6            1 RES     
    3242 H6         131.5126   -66.4527   -47.1533 H6            1 RES     
    3243 H6         133.9849   -66.4870   -47.1112 H6            1 RES     
    3244 H6         133.3420   -67.5636   -48.3819 H6            1 RES     
    3245 H6         133.7850   -69.5671   -47.0017 H6            1 RES     
    3246 H6         135.2579   -68.5755   -47.2538 H6            1 RES     
    3247 H6         133.4929   -68.5729   -44.7156 H6            1 RES     
    3248 H6         134.9860   -67.5902   -44.9326 H6            1 RES     
    3249 H6         135.2713   -69.6615   -43.5555 H6            1 RES     
    3250 H6         134.7489   -70.6717   -44.9516 H6            1 RES     
    3251 H6         136.7989   -69.8627   -46.2407 H6            1 RES     
    3252 H6         137.2122   -68.7993   -44.8461 H6            1 RES     
    3253 H6         137.5141   -70.8042   -43.3845 H6            1 RES     
    3254 H6         138.6103   -70.7875   -44.8117 H6            1 RES     
    3255 H6         136.0388   -72.4807   -44.5687 H6            1 RES     
    3256 H6         137.1305   -72.3986   -46.0115 H6            1 RES     
    3257 H6         137.7330   -73.0547   -44.4426 H6            1 RES     
    3258 H6         128.8243   -70.0366   -46.4594 H6            1 RES     
    3259 H6         127.9900   -71.0253   -47.6115 H6            1 RES     
    3260 H6         127.4825   -68.2455   -46.8647 H6            1 RES     
    3261 H6         128.0499   -68.1888   -48.5714 H6            1 RES     
    3262 H6         125.7475   -69.9725   -47.4413 H6            1 RES     
    3263 H6         126.4638   -70.0083   -49.0454 H6            1 RES     
    3264 H6         125.7860   -67.7672   -49.5976 H6            1 RES     
    3265 H6         124.4919   -68.9623   -49.3786 H6            1 RES     
    3266 H6         123.9346   -68.1297   -47.1904 H6            1 RES     
    3267 H6         125.1974   -66.8345   -47.2774 H6            1 RES     
    3268 H6         124.1698   -65.8863   -49.3151 H6            1 RES     
    3269 H6         122.9471   -67.1998   -49.3996 H6            1 RES     
    3270 H6         122.0223   -65.0750   -48.5505 H6            1 RES     
    3271 H6         123.1294   -65.1259   -47.1279 H6            1 RES     
    3272 H6         122.0119   -67.2970   -46.4098 H6            1 RES     
    3273 H6         120.8149   -65.9735   -46.6114 H6            1 RES     
    3274 H6         120.9763   -67.2315   -47.8910 H6            1 RES     
    3275 C0         129.4629   -71.5657   -52.2450 C0            1 RES     
    3276 C0         130.4046   -70.5188   -52.9955 C0            1 RES     
    3277 C0         130.2031   -70.7630   -54.5292 C0            1 RES     
    3278 C0         131.2088   -70.0497   -55.4553 C0            1 RES     
    3279 C0         130.9590   -70.2984   -56.9533 C0            1 RES     
    3280 C0         131.0286   -71.7673   -57.4078 C0            1 RES     
    3281 C0         132.3232   -72.5071   -57.0320 C0            1 RES     
    3282 C0         133.5945   -71.8309   -57.5747 C0            1 RES     
    3283 C0         134.8797   -72.5796   -57.1862 C0            1 RES     
    3284 C0         134.9885   -73.9653   -57.8473 C0            1 RES     
    3285 C0         136.3273   -74.6633   -57.5613 C0            1 RES     
    3286 C0         136.5193   -75.0196   -56.0871 C0            1 RES     
    3287 C0         130.4947   -68.9688   -52.6693 C0            1 RES     
    3288 C0         129.3131   -67.9981   -52.9511 C0            1 RES     
    3289 C0         128.5976   -67.5560   -51.6620 C0            1 RES     
    3290 C0         127.3855   -66.6547   -51.8306 C0            1 RES     
    3291 C0         127.6492   -65.2114   -52.2363 C0            1 RES     
    3292 C0         126.2986   -64.4695   -52.1697 C0            1 RES     
    3293 C0         126.3919   -62.9598   -52.3982 C0            1 RES     
    3294 C0         127.1271   -62.2450   -51.2635 C0            1 RES     
    3295 H6         128.5875   -71.7893   -52.8983 H6            1 RES     
    3296 H6         130.0174   -72.5288   -52.3143 H6            1 RES     
    3297 H6         131.4338   -70.8607   -52.7389 H6            1 RES     
    3298 H6         129.1758   -70.4495   -54.8148 H6            1 RES     
    3299 H6         130.2904   -71.8555   -54.7129 H6            1 RES     
    3300 H6         132.2405   -70.3555   -55.1820 H6            1 RES     
    3301 H6         131.1259   -68.9515   -55.3403 H6            1 RES     
    3302 H6         131.7090   -69.7094   -57.5232 H6            1 RES     
    3303 H6         129.9590   -69.8970   -57.2289 H6            1 RES     
    3304 H6         130.9040   -71.7878   -58.5126 H6            1 RES     
    3305 H6         130.1732   -72.3265   -56.9723 H6            1 RES     
    3306 H6         132.3964   -72.5897   -55.9265 H6            1 RES     
    3307 H6         132.2339   -73.5333   -57.4430 H6            1 RES     
    3308 H6         133.6735   -70.8129   -57.1392 H6            1 RES     
    3309 H6         133.5366   -71.7325   -58.6804 H6            1 RES     
    3310 H6         135.7422   -71.9654   -57.5251 H6            1 RES     
    3311 H6         134.9254   -72.6627   -56.0795 H6            1 RES     
    3312 H6         134.1646   -74.6304   -57.5159 H6            1 RES     
    3313 H6         134.9079   -73.8299   -58.9480 H6            1 RES     
    3314 H6         137.1677   -74.0208   -57.9030 H6            1 RES     
    3315 H6         136.3540   -75.6077   -58.1466 H6            1 RES     
    3316 H6         136.5551   -74.1105   -55.4536 H6            1 RES     
    3317 H6         135.6949   -75.6787   -55.7410 H6            1 RES     
    3318 H6         137.4810   -75.5603   -55.9632 H6            1 RES     
    3319 H6         131.3293   -68.6008   -53.2938 H6            1 RES     
    3320 H6         130.9590   -68.7557   -51.6881 H6            1 RES     
    3321 H6         129.7394   -67.0578   -53.3650 H6            1 RES     
    3322 H6         128.6288   -68.4176   -53.7162 H6            1 RES     
    3323 H6         129.3239   -67.0861   -50.9605 H6            1 RES     
    3324 H6         128.1679   -68.4199   -51.1673 H6            1 RES     
    3325 H6         126.6479   -67.1359   -52.5090 H6            1 RES     
    3326 H6         126.9507   -66.5767   -50.8205 H6            1 RES     
    3327 H6         128.3677   -64.7805   -51.5073 H6            1 RES     
    3328 H6         128.0834   -65.1538   -53.2561 H6            1 RES     
    3329 H6         125.6265   -64.9081   -52.9398 H6            1 RES     
    3330 H6         125.8194   -64.6279   -51.1761 H6            1 RES     
    3331 H6         125.3527   -62.5645   -52.4229 H6            1 RES     
    3332 H6         126.8747   -62.7504   -53.3734 H6            1 RES     
    3333 H6         128.1874   -62.5615   -51.2047 H6            1 RES     
    3334 H6         127.1010   -61.1505   -51.4426 H6            1 RES     
    3335 H6         126.6300   -62.4537   -50.2908 H6            1 RES     
    3336 C0         134.4453   -82.0538   -45.5890 C0            1 RES     
    3337 C1         133.1835   -81.2635   -46.0001 C1            1 RES     
    3338 C1         132.0772   -82.0495   -46.0592 C1            1 RES     
    3339 S2         130.7102   -81.2430   -46.5912 S2            1 RES     
    3340 C1         131.5697   -79.7922   -46.8088 C1            1 RES     
    3341 C1         132.9146   -79.9650   -46.4641 C1            1 RES     
    3342 C1         132.4452   -83.3769   -45.7504 C1            1 RES     
    3343 C1         133.7914   -83.4362   -45.5630 C1            1 RES     
    3344 C1         134.2447   -84.7392   -45.3961 C1            1 RES     
    3345 C1         133.1710   -85.6448   -45.4311 C1            1 RES     
    3346 S2         131.6880   -84.8563   -45.6813 S2            1 RES     
    3347 H3         133.6361   -79.1828   -46.6055 H3            1 RES     
    3348 H3         135.2838   -85.0158   -45.2630 H3            1 RES     
    3349 N4         132.8174   -89.2064   -44.3174 N4            1 RES     
    3350 C1         132.7545   -87.8425   -44.3158 C1            1 RES     
    3351 C1         133.2694   -87.0996   -45.3922 C1            1 RES     
    3352 C1         133.8233   -87.7962   -46.4678 C1            1 RES     
    3353 N4         134.3021   -87.2042   -47.5920 N4            1 RES     
    3354 S2         134.7529   -88.5040   -48.5079 S2            1 RES     
    3355 N4         134.3790   -89.8059   -47.5573 N4            1 RES     
    3356 C1         133.8589   -89.2132   -46.4542 C1            1 RES     
    3357 C1         133.3600   -89.9051   -45.3538 C1            1 RES     
    3358 H5         132.3089   -87.3310   -43.4670 H5            1 RES     
    3359 C0         135.1033   -81.7894   -44.1891 C0            1 RES     
    3360 C0         134.6060   -82.1638   -42.7419 C0            1 RES     
    3361 C0         135.6486   -81.5087   -41.7691 C0            1 RES     
    3362 C0         135.4573   -81.7714   -40.2702 C0            1 RES     
    3363 C0         136.5096   -81.0364   -39.4069 C0            1 RES     
    3364 C0         137.9789   -81.4533   -39.6374 C0            1 RES     
    3365 C0         138.2574   -82.9586   -39.4806 C0            1 RES     
    3366 C0         137.8590   -83.5048   -38.0981 C0            1 RES     
    3367 C0         138.0858   -85.0175   -37.9636 C0            1 RES     
    3368 C0         139.5721   -85.4119   -37.9937 C0            1 RES     
    3369 C0         139.7932   -86.9123   -37.7436 C0            1 RES     
    3370 C0         139.2239   -87.7981   -38.8525 C0            1 RES     
    3371 C0         133.1331   -81.8455   -42.3245 C0            1 RES     
    3372 C0         132.6698   -80.3588   -42.2370 C0            1 RES     
    3373 C0         131.4978   -80.1471   -43.2002 C0            1 RES     
    3374 C0         131.0910   -78.7137   -43.5299 C0            1 RES     
    3375 C0         130.2328   -77.9988   -42.4964 C0            1 RES     
    3376 C0         129.9016   -76.5968   -43.0494 C0            1 RES     
    3377 C0         128.8844   -75.8150   -42.2150 C0            1 RES     
    3378 C0         127.4863   -76.4338   -42.2749 C0            1 RES     
    3379 H6         135.2820   -80.7458   -44.1369 H6            1 RES     
    3380 H6         136.0940   -82.2936   -44.2538 H6            1 RES     
    3381 H6         134.6889   -83.2702   -42.6541 H6            1 RES     
    3382 H6         135.6404   -80.4059   -41.9119 H6            1 RES     
    3383 H6         136.6569   -81.8764   -42.0563 H6            1 RES     
    3384 H6         135.4781   -82.8617   -40.0686 H6            1 RES     
    3385 H6         134.4705   -81.3772   -39.9537 H6            1 RES     
    3386 H6         136.2543   -81.1990   -38.3394 H6            1 RES     
    3387 H6         136.4308   -79.9411   -39.5859 H6            1 RES     
    3388 H6         138.6138   -80.8910   -38.9169 H6            1 RES     
    3389 H6         138.2999   -81.1462   -40.6557 H6            1 RES     
    3390 H6         137.7100   -83.5163   -40.2695 H6            1 RES     
    3391 H6         139.3435   -83.1122   -39.6494 H6            1 RES     
    3392 H6         136.7724   -83.3409   -37.9478 H6            1 RES     
    3393 H6         138.4082   -82.9640   -37.2965 H6            1 RES     
    3394 H6         137.6637   -85.3340   -36.9849 H6            1 RES     
    3395 H6         137.5213   -85.5325   -38.7690 H6            1 RES     
    3396 H6         140.0364   -85.1390   -38.9639 H6            1 RES     
    3397 H6         140.0938   -84.8540   -37.1857 H6            1 RES     
    3398 H6         139.3456   -87.2019   -36.7678 H6            1 RES     
    3399 H6         140.8879   -87.0956   -37.6891 H6            1 RES     
    3400 H6         138.1218   -87.7002   -38.9226 H6            1 RES     
    3401 H6         139.6807   -87.5304   -39.8289 H6            1 RES     
    3402 H6         139.4576   -88.8603   -38.6304 H6            1 RES     
    3403 H6         132.9646   -82.2921   -41.3212 H6            1 RES     
    3404 H6         132.4529   -82.4421   -42.9693 H6            1 RES     
    3405 H6         132.3227   -80.1131   -41.2083 H6            1 RES     
    3406 H6         133.5114   -79.6819   -42.4885 H6            1 RES     
    3407 H6         130.6174   -80.7700   -42.9362 H6            1 RES     
    3408 H6         131.8783   -80.5087   -44.1318 H6            1 RES     
    3409 H6         131.9864   -78.1335   -43.7664 H6            1 RES     
    3410 H6         130.4805   -78.7675   -44.4598 H6            1 RES     
    3411 H6         129.3088   -78.6006   -42.3644 H6            1 RES     
    3412 H6         130.7572   -77.9144   -41.5212 H6            1 RES     
    3413 H6         130.8494   -76.0142   -43.0986 H6            1 RES     
    3414 H6         129.5000   -76.6717   -44.0857 H6            1 RES     
    3415 H6         128.8120   -74.7910   -42.6432 H6            1 RES     
    3416 H6         129.2310   -75.7324   -41.1633 H6            1 RES     
    3417 H6         127.4706   -77.4468   -41.8267 H6            1 RES     
    3418 H6         126.7743   -75.7952   -41.7138 H6            1 RES     
    3419 H6         127.1417   -76.4987   -43.3312 H6            1 RES     
    3420 C0         135.4661   -81.8465   -46.7767 C0            1 RES     
    3421 C0         136.8332   -81.0276   -46.6958 C0            1 RES     
    3422 C0         137.2010   -80.6345   -48.1663 C0            1 RES     
    3423 C0         138.6202   -80.0665   -48.3691 C0            1 RES     
    3424 C0         138.9299   -79.6719   -49.8240 C0            1 RES     
    3425 C0         138.8449   -80.8091   -50.8577 C0            1 RES     
    3426 C0         139.6893   -82.0525   -50.5324 C0            1 RES     
    3427 C0         141.1870   -81.7464   -50.3555 C0            1 RES     
    3428 C0         142.0159   -82.9984   -50.0259 C0            1 RES     
    3429 C0         142.0655   -84.0067   -51.1878 C0            1 RES     
    3430 C0         142.9938   -85.1990   -50.9086 C0            1 RES     
    3431 C0         142.5078   -86.0868   -49.7629 C0            1 RES     
    3432 C0         137.1290   -79.8345   -45.6928 C0            1 RES     
    3433 C0         136.3998   -78.4656   -45.8039 C0            1 RES     
    3434 C0         135.3532   -78.2673   -44.6927 C0            1 RES     
    3435 C0         134.5370   -76.9864   -44.7467 C0            1 RES     
    3436 C0         135.2514   -75.6959   -44.3703 C0            1 RES     
    3437 C0         134.1839   -74.5833   -44.3322 C0            1 RES     
    3438 C0         134.6913   -73.2343   -43.8196 C0            1 RES     
    3439 C0         135.0608   -73.2784   -42.3361 C0            1 RES     
    3440 H6         134.8914   -81.4931   -47.6644 H6            1 RES     
    3441 H6         135.7749   -82.8577   -47.1260 H6            1 RES     
    3442 H6         137.5755   -81.7888   -46.3617 H6            1 RES     
    3443 H6         136.4654   -79.8886   -48.5374 H6            1 RES     
    3444 H6         137.1089   -81.5467   -48.7942 H6            1 RES     
    3445 H6         139.3662   -80.8031   -48.0039 H6            1 RES     
    3446 H6         138.7444   -79.1273   -47.7960 H6            1 RES     
    3447 H6         139.9536   -79.2408   -49.8465 H6            1 RES     
    3448 H6         138.2343   -78.8635   -50.1396 H6            1 RES     
    3449 H6         139.1627   -80.3992   -51.8413 H6            1 RES     
    3450 H6         137.7865   -81.1295   -50.9639 H6            1 RES     
    3451 H6         139.3026   -82.5329   -49.6083 H6            1 RES     
    3452 H6         139.5435   -82.7641   -51.3705 H6            1 RES     
    3453 H6         141.3121   -81.0466   -49.5030 H6            1 RES     
    3454 H6         141.5909   -81.2580   -51.2686 H6            1 RES     
    3455 H6         143.0550   -82.6666   -49.8107 H6            1 RES     
    3456 H6         141.6041   -83.4695   -49.1083 H6            1 RES     
    3457 H6         141.0526   -84.3940   -51.4224 H6            1 RES     
    3458 H6         142.4554   -83.4796   -52.0858 H6            1 RES     
    3459 H6         144.0205   -84.8337   -50.6886 H6            1 RES     
    3460 H6         143.0380   -85.8223   -51.8277 H6            1 RES     
    3461 H6         142.4926   -85.5337   -48.8022 H6            1 RES     
    3462 H6         141.4900   -86.4739   -49.9823 H6            1 RES     
    3463 H6         143.1980   -86.9492   -49.6496 H6            1 RES     
    3464 H6         138.2007   -79.6064   -45.8397 H6            1 RES     
    3465 H6         137.2058   -80.1598   -44.6383 H6            1 RES     
    3466 H6         137.1511   -77.6664   -45.6194 H6            1 RES     
    3467 H6         135.9962   -78.3128   -46.8253 H6            1 RES     
    3468 H6         135.8304   -78.3699   -43.6917 H6            1 RES     
    3469 H6         134.5841   -79.0271   -44.7747 H6            1 RES     
    3470 H6         134.0380   -76.8973   -45.7361 H6            1 RES     
    3471 H6         133.7698   -77.1089   -43.9645 H6            1 RES     
    3472 H6         135.7022   -75.8390   -43.3656 H6            1 RES     
    3473 H6         136.0519   -75.4526   -45.0996 H6            1 RES     
    3474 H6         133.7889   -74.4496   -45.3634 H6            1 RES     
    3475 H6         133.3311   -74.8881   -43.6828 H6            1 RES     
    3476 H6         133.8608   -72.5035   -43.9344 H6            1 RES     
    3477 H6         135.5513   -72.8930   -44.4293 H6            1 RES     
    3478 H6         135.9142   -73.9606   -42.1511 H6            1 RES     
    3479 H6         135.3503   -72.2615   -42.0004 H6            1 RES     
    3480 H6         134.1891   -73.6130   -41.7319 H6            1 RES     
    3481 C0         134.9786   -95.0333   -44.5414 C0            1 RES     
    3482 C1         134.1886   -93.7462   -44.8652 C1            1 RES     
    3483 C1         133.0500   -93.9995   -45.5614 C1            1 RES     
    3484 S2         132.2171   -92.6180   -46.0086 S2            1 RES     
    3485 C1         133.3912   -91.6044   -45.3123 C1            1 RES     
    3486 C1         134.4183   -92.3656   -44.7438 C1            1 RES     
    3487 C1         132.9633   -95.3877   -45.8023 C1            1 RES     
    3488 C1         134.0784   -95.9969   -45.3162 C1            1 RES     
    3489 C1         134.1289   -97.3463   -45.6444 C1            1 RES     
    3490 C1         132.9834   -97.7231   -46.3657 C1            1 RES     
    3491 S2         131.9325   -96.4122   -46.6113 S2            1 RES     
    3492 H3         135.2912   -91.9053   -44.3212 H3            1 RES     
    3493 H3         134.9430   -98.0120   -45.3836 H3            1 RES     
    3494 N4         131.4417  -101.0554   -47.1205 N4            1 RES     
    3495 C1         131.6871   -99.8547   -46.5186 C1            1 RES     
    3496 C1         132.7337   -99.0294   -46.9650 C1            1 RES     
    3497 C1         133.4959   -99.4621   -48.0515 C1            1 RES     
    3498 N4         134.4956   -98.7375   -48.6163 N4            1 RES     
    3499 S2         134.9695   -99.7088   -49.8667 S2            1 RES     
    3500 N4         133.9742  -101.0251   -49.7436 N4            1 RES     
    3501 C1         133.2085  -100.7040   -48.6717 C1            1 RES     
    3502 C1         132.1779  -101.4994   -48.1777 C1            1 RES     
    3503 H5         131.0696   -99.5431   -45.6806 H5            1 RES     
    3504 C0         135.0754   -95.5300   -43.0559 C0            1 RES     
    3505 C0         133.9806   -96.1717   -42.1223 C0            1 RES     
    3506 C0         134.6748   -96.3240   -40.7232 C0            1 RES     
    3507 C0         133.8577   -96.9991   -39.6147 C0            1 RES     
    3508 C0         134.6212   -97.0482   -38.2702 C0            1 RES     
    3509 C0         135.9309   -97.8669   -38.2699 C0            1 RES     
    3510 C0         135.7845   -99.3236   -38.7442 C0            1 RES     
    3511 C0         134.7653  -100.1275   -37.9174 C0            1 RES     
    3512 C0         134.5799  -101.5637   -38.4276 C0            1 RES     
    3513 C0         135.8312  -102.4386   -38.2418 C0            1 RES     
    3514 C0         135.5980  -103.9021   -38.6494 C0            1 RES     
    3515 C0         135.3287  -104.0754   -40.1446 C0            1 RES     
    3516 C0         132.5724   -95.5014   -42.0089 C0            1 RES     
    3517 C0         132.4539   -94.0776   -41.3833 C0            1 RES     
    3518 C0         131.8325   -93.1323   -42.4159 C0            1 RES     
    3519 C0         131.9163   -91.6310   -42.1551 C0            1 RES     
    3520 C0         130.9030   -91.0564   -41.1760 C0            1 RES     
    3521 C0         131.1349   -89.5327   -41.1000 C0            1 RES     
    3522 C0         130.0727   -88.7733   -40.3019 C0            1 RES     
    3523 C0         128.7109   -88.7749   -40.9997 C0            1 RES     
    3524 H6         135.4456   -94.7120   -42.4924 H6            1 RES     
    3525 H6         135.8734   -96.3061   -43.0793 H6            1 RES     
    3526 H6         133.7750   -97.1881   -42.5262 H6            1 RES     
    3527 H6         134.9678   -95.3190   -40.3482 H6            1 RES     
    3528 H6         135.6062   -96.9118   -40.8698 H6            1 RES     
    3529 H6         133.5555   -98.0183   -39.9307 H6            1 RES     
    3530 H6         132.9399   -96.4066   -39.4254 H6            1 RES     
    3531 H6         133.9384   -97.4643   -37.5009 H6            1 RES     
    3532 H6         134.8637   -96.0113   -37.9479 H6            1 RES     
    3533 H6         136.3396   -97.8629   -37.2348 H6            1 RES     
    3534 H6         136.6851   -97.3671   -38.9146 H6            1 RES     
    3535 H6         135.4818   -99.3320   -39.8125 H6            1 RES     
    3536 H6         136.7863   -99.7958   -38.6725 H6            1 RES     
    3537 H6         133.7727   -99.6397   -38.0002 H6            1 RES     
    3538 H6         135.0610  -100.1387   -36.8454 H6            1 RES     
    3539 H6         133.7490  -102.0209   -37.8474 H6            1 RES     
    3540 H6         134.2779  -101.5234   -39.4952 H6            1 RES     
    3541 H6         136.6869  -102.0375   -38.8235 H6            1 RES     
    3542 H6         136.1035  -102.4272   -37.1639 H6            1 RES     
    3543 H6         134.7514  -104.3257   -38.0661 H6            1 RES     
    3544 H6         136.5134  -104.4804   -38.3987 H6            1 RES     
    3545 H6         134.3940  -103.5629   -40.4493 H6            1 RES     
    3546 H6         136.1789  -103.6739   -40.7359 H6            1 RES     
    3547 H6         135.2148  -105.1555   -40.3746 H6            1 RES     
    3548 H6         131.9294   -96.1723   -41.3999 H6            1 RES     
    3549 H6         132.0860   -95.5446   -43.0069 H6            1 RES     
    3550 H6         131.7948   -94.0938   -40.4864 H6            1 RES     
    3551 H6         133.4539   -93.7142   -41.0706 H6            1 RES     
    3552 H6         130.8049   -93.4391   -42.7037 H6            1 RES     
    3553 H6         132.4575   -93.2620   -43.2737 H6            1 RES     
    3554 H6         132.9369   -91.3761   -41.8594 H6            1 RES     
    3555 H6         131.7242   -91.1323   -43.1323 H6            1 RES     
    3556 H6         129.8929   -91.2835   -41.5782 H6            1 RES     
    3557 H6         131.0072   -91.5128   -40.1690 H6            1 RES     
    3558 H6         132.1294   -89.3598   -40.6296 H6            1 RES     
    3559 H6         131.1664   -89.0921   -42.1224 H6            1 RES     
    3560 H6         130.4030   -87.7141   -40.2227 H6            1 RES     
    3561 H6         129.9877   -89.1925   -39.2773 H6            1 RES     
    3562 H6         128.2966   -89.7992   -41.0801 H6            1 RES     
    3563 H6         127.9966   -88.1564   -40.4193 H6            1 RES     
    3564 H6         128.8034   -88.3395   -42.0198 H6            1 RES     
    3565 C0         136.4018   -94.8175   -45.1921 C0            1 RES     
    3566 C0         137.7720   -94.6390   -44.3940 C0            1 RES     
    3567 C0         138.7644   -93.9257   -45.3731 C0            1 RES     
    3568 C0         140.2368   -93.8849   -44.9166 C0            1 RES     
    3569 C0         141.1716   -93.1545   -45.8969 C0            1 RES     
    3570 C0         141.2493   -93.7483   -47.3147 C0            1 RES     
    3571 C0         141.6000   -95.2441   -47.3785 C0            1 RES     
    3572 C0         142.9355   -95.5896   -46.6963 C0            1 RES     
    3573 C0         143.2688   -97.0888   -46.7644 C0            1 RES     
    3574 C0         143.5455   -97.5763   -48.1979 C0            1 RES     
    3575 C0         144.0005   -99.0428   -48.2558 C0            1 RES     
    3576 C0         142.9204  -100.0279   -47.8084 C0            1 RES     
    3577 C0         137.9069   -94.0635   -42.9217 C0            1 RES     
    3578 C0         137.6027   -92.5754   -42.5884 C0            1 RES     
    3579 C0         136.2764   -92.4048   -41.8262 C0            1 RES     
    3580 C0         135.8527   -90.9807   -41.5068 C0            1 RES     
    3581 C0         136.6286   -90.2578   -40.4148 C0            1 RES     
    3582 C0         135.9073   -88.9187   -40.1590 C0            1 RES     
    3583 C0         136.4580   -88.1165   -38.9786 C0            1 RES     
    3584 C0         136.1960   -88.8029   -37.6372 C0            1 RES     
    3585 H6         136.3154   -93.9948   -45.9396 H6            1 RES     
    3586 H6         136.5906   -95.6834   -45.8663 H6            1 RES     
    3587 H6         138.1350   -95.6840   -44.2589 H6            1 RES     
    3588 H6         138.4186   -92.8835   -45.5449 H6            1 RES     
    3589 H6         138.7265   -94.4629   -46.3451 H6            1 RES     
    3590 H6         140.5963   -94.9208   -44.7428 H6            1 RES     
    3591 H6         140.3309   -93.3172   -43.9706 H6            1 RES     
    3592 H6         142.1898   -93.1493   -45.4525 H6            1 RES     
    3593 H6         140.8535   -92.0921   -45.9827 H6            1 RES     
    3594 H6         142.0098   -93.1705   -47.8843 H6            1 RES     
    3595 H6         140.2752   -93.6006   -47.8279 H6            1 RES     
    3596 H6         140.7858   -95.8370   -46.9096 H6            1 RES     
    3597 H6         141.6410   -95.5157   -48.4530 H6            1 RES     
    3598 H6         142.8677   -95.3257   -45.6203 H6            1 RES     
    3599 H6         143.7626   -95.0000   -47.1477 H6            1 RES     
    3600 H6         144.1854   -97.2573   -46.1582 H6            1 RES     
    3601 H6         142.4366   -97.6622   -46.3034 H6            1 RES     
    3602 H6         142.6475   -97.4586   -48.8388 H6            1 RES     
    3603 H6         144.3627   -96.9533   -48.6225 H6            1 RES     
    3604 H6         144.9117   -99.1795   -47.6337 H6            1 RES     
    3605 H6         144.2626   -99.2797   -49.3095 H6            1 RES     
    3606 H6         142.6524   -99.8766   -46.7433 H6            1 RES     
    3607 H6         142.0121   -99.9135   -48.4376 H6            1 RES     
    3608 H6         143.3010  -101.0648   -47.9209 H6            1 RES     
    3609 H6         138.9718   -94.2083   -42.6625 H6            1 RES     
    3610 H6         137.4896   -94.7372   -42.1499 H6            1 RES     
    3611 H6         138.3781   -92.2240   -41.8724 H6            1 RES     
    3612 H6         137.6771   -91.9424   -43.4957 H6            1 RES     
    3613 H6         136.2869   -93.0145   -40.8942 H6            1 RES     
    3614 H6         135.4536   -92.7512   -42.4416 H6            1 RES     
    3615 H6         135.8152   -90.3788   -42.4407 H6            1 RES     
    3616 H6         134.8337   -91.0759   -41.0968 H6            1 RES     
    3617 H6         136.6052   -90.8939   -39.5048 H6            1 RES     
    3618 H6         137.6834   -90.0886   -40.7163 H6            1 RES     
    3619 H6         135.9889   -88.3020   -41.0810 H6            1 RES     
    3620 H6         134.8236   -89.0941   -39.9670 H6            1 RES     
    3621 H6         135.9236   -87.1413   -38.9637 H6            1 RES     
    3622 H6         137.5406   -87.9260   -39.1183 H6            1 RES     
    3623 H6         136.7340   -89.7689   -37.5642 H6            1 RES     
    3624 H6         136.5480   -88.1466   -36.8151 H6            1 RES     
    3625 H6         135.1066   -88.9815   -37.5022 H6            1 RES     
    3626 C0         132.1680  -106.8033   -49.3807 C0            1 RES     
    3627 C1         131.8750  -105.2900   -49.2816 C1            1 RES     
    3628 C1         131.0756  -104.8510   -50.2883 C1            1 RES     
    3629 S2         130.8135  -103.1977   -50.2630 S2            1 RES     
    3630 C1         131.8130  -102.9930   -48.9029 C1            1 RES     
    3631 C1         132.3383  -104.2235   -48.4932 C1            1 RES     
    3632 C1         130.7851  -105.9351   -51.1444 C1            1 RES     
    3633 C1         131.4549  -107.0380   -50.7132 C1            1 RES     
    3634 C1         131.3298  -108.1087   -51.5902 C1            1 RES     
    3635 C1         130.5067  -107.7651   -52.6760 C1            1 RES     
    3636 S2         129.9553  -106.1627   -52.5679 S2            1 RES     
    3637 H3         133.0537  -104.2918   -47.6958 H3            1 RES     
    3638 H3         131.8067  -109.0721   -51.4554 H3            1 RES     
    3639 N4         128.6883  -109.8179   -55.2314 N4            1 RES     
    3640 C1         128.9372  -109.0787   -54.1107 C1            1 RES     
    3641 C1         130.2296  -108.5948   -53.8432 C1            1 RES     
    3642 C1         131.2404  -108.8722   -54.7652 C1            1 RES     
    3643 N4         132.5150  -108.4172   -54.6564 N4            1 RES     
    3644 S2         133.2135  -108.9976   -56.0374 S2            1 RES     
    3645 N4         131.9851  -109.8126   -56.7891 N4            1 RES     
    3646 C1         130.9520  -109.6253   -55.9310 C1            1 RES     
    3647 C1         129.6620  -110.1057   -56.1402 C1            1 RES     
    3648 H5         128.1262  -108.8730   -53.4175 H5            1 RES     
    3649 C0         131.5614  -107.7814   -48.3138 C0            1 RES     
    3650 C0         130.0756  -108.2574   -48.0956 C0            1 RES     
    3651 C0         130.1126  -109.1271   -46.7899 C0            1 RES     
    3652 C0         128.7987  -109.7942   -46.3648 C0            1 RES     
    3653 C0         128.9418  -110.5811   -45.0408 C0            1 RES     
    3654 C0         129.9295  -111.7684   -45.0673 C0            1 RES     
    3655 C0         129.6623  -112.8091   -46.1690 C0            1 RES     
    3656 C0         128.2499  -113.4160   -46.0954 C0            1 RES     
    3657 C0         127.9664  -114.4124   -47.2287 C0            1 RES     
    3658 C0         128.8166  -115.6908   -47.1378 C0            1 RES     
    3659 C0         128.4441  -116.7287   -48.2086 C0            1 RES     
    3660 C0         128.7520  -116.2627   -49.6321 C0            1 RES     
    3661 C0         128.9225  -107.2017   -48.0651 C0            1 RES     
    3662 C0         128.8867  -106.1446   -46.9188 C0            1 RES     
    3663 C0         128.9466  -104.7434   -47.5344 C0            1 RES     
    3664 C0         129.2517  -103.5674   -46.6109 C0            1 RES     
    3665 C0         128.0902  -103.0383   -45.7823 C0            1 RES     
    3666 C0         128.6050  -101.8333   -44.9672 C0            1 RES     
    3667 C0         127.5118  -101.0640   -44.2220 C0            1 RES     
    3668 C0         126.5696  -100.3253   -45.1748 C0            1 RES     
    3669 H6         131.8521  -107.4052   -47.3663 H6            1 RES     
    3670 H6         132.1111  -108.7361   -48.4755 H6            1 RES     
    3671 H6         129.8254  -108.9205   -48.9537 H6            1 RES     
    3672 H6         130.4497  -108.4960   -45.9387 H6            1 RES     
    3673 H6         130.8714  -109.9254   -46.9364 H6            1 RES     
    3674 H6         128.4271  -110.4547   -47.1745 H6            1 RES     
    3675 H6         128.0363  -109.0115   -46.1762 H6            1 RES     
    3676 H6         127.9382  -110.9564   -44.7525 H6            1 RES     
    3677 H6         129.2616  -109.8857   -44.2334 H6            1 RES     
    3678 H6         129.8891  -112.2725   -44.0760 H6            1 RES     
    3679 H6         130.9665  -111.3900   -45.1929 H6            1 RES     
    3680 H6         129.8093  -112.3361   -47.1628 H6            1 RES     
    3681 H6         130.4238  -113.6088   -46.0588 H6            1 RES     
    3682 H6         127.5043  -112.6024   -46.2057 H6            1 RES     
    3683 H6         128.0907  -113.9046   -45.1092 H6            1 RES     
    3684 H6         126.8956  -114.7035   -47.1590 H6            1 RES     
    3685 H6         128.1245  -113.8977   -48.1996 H6            1 RES     
    3686 H6         129.8976  -115.4567   -47.2277 H6            1 RES     
    3687 H6         128.6393  -116.1534   -46.1424 H6            1 RES     
    3688 H6         127.3657  -116.9861   -48.1252 H6            1 RES     
    3689 H6         129.0348  -117.6503   -48.0164 H6            1 RES     
    3690 H6         128.1507  -115.3722   -49.9051 H6            1 RES     
    3691 H6         129.8320  -116.0229   -49.7313 H6            1 RES     
    3692 H6         128.5013  -117.0745   -50.3466 H6            1 RES     
    3693 H6         127.9609  -107.7563   -48.0183 H6            1 RES     
    3694 H6         128.8703  -106.7158   -49.0629 H6            1 RES     
    3695 H6         127.9428  -106.2273   -46.3346 H6            1 RES     
    3696 H6         129.7372  -106.3052   -46.2256 H6            1 RES     
    3697 H6         128.0742  -104.5324   -48.1880 H6            1 RES     
    3698 H6         129.8124  -104.7878   -48.1602 H6            1 RES     
    3699 H6         130.1032  -103.8233   -45.9757 H6            1 RES     
    3700 H6         129.5741  -102.7283   -47.2686 H6            1 RES     
    3701 H6         127.2960  -102.7253   -46.4927 H6            1 RES     
    3702 H6         127.6870  -103.8189   -45.1031 H6            1 RES     
    3703 H6         129.3466  -102.2109   -44.2272 H6            1 RES     
    3704 H6         129.1319  -101.1107   -45.6311 H6            1 RES     
    3705 H6         128.0102  -100.2975   -43.5887 H6            1 RES     
    3706 H6         126.9410  -101.7493   -43.5607 H6            1 RES     
    3707 H6         126.0043  -101.0305   -45.8155 H6            1 RES     
    3708 H6         125.8412   -99.7300   -44.5878 H6            1 RES     
    3709 H6         127.1489   -99.6303   -45.8230 H6            1 RES     
    3710 C0         133.7417  -106.9133   -49.4643 C0            1 RES     
    3711 C0         134.6912  -107.5370   -48.3438 C0            1 RES     
    3712 C0         136.1194  -106.9459   -48.5952 C0            1 RES     
    3713 C0         137.2638  -107.6079   -47.8014 C0            1 RES     
    3714 C0         138.6447  -106.9804   -48.0613 C0            1 RES     
    3715 C0         139.1389  -107.0316   -49.5180 C0            1 RES     
    3716 C0         139.1456  -108.4302   -50.1571 C0            1 RES     
    3717 C0         139.9936  -109.4538   -49.3816 C0            1 RES     
    3718 C0         139.9857  -110.8474   -50.0304 C0            1 RES     
    3719 C0         140.6871  -110.8743   -51.4002 C0            1 RES     
    3720 C0         140.7912  -112.2879   -51.9937 C0            1 RES     
    3721 C0         139.4331  -112.8977   -52.3413 C0            1 RES     
    3722 C0         134.3615  -107.5983   -46.7931 C0            1 RES     
    3723 C0         134.2889  -106.3166   -45.9156 C0            1 RES     
    3724 C0         132.8435  -105.9469   -45.5367 C0            1 RES     
    3725 C0         132.6555  -104.6719   -44.7313 C0            1 RES     
    3726 C0         133.0799  -104.7092   -43.2699 C0            1 RES     
    3727 C0         132.6322  -103.3766   -42.6353 C0            1 RES     
    3728 C0         132.8384  -103.2936   -41.1218 C0            1 RES     
    3729 C0         131.9261  -104.2543   -40.3578 C0            1 RES     
    3730 H6         134.1401  -105.9125   -49.7518 H6            1 RES     
    3731 H6         133.9829  -107.4973   -50.3812 H6            1 RES     
    3732 H6         134.7307  -108.6194   -48.6062 H6            1 RES     
    3733 H6         136.1090  -105.8595   -48.3609 H6            1 RES     
    3734 H6         136.3480  -107.0600   -49.6767 H6            1 RES     
    3735 H6         137.2870  -108.6945   -48.0277 H6            1 RES     
    3736 H6         137.1023  -107.4790   -46.7136 H6            1 RES     
    3737 H6         139.3805  -107.5026   -47.4130 H6            1 RES     
    3738 H6         138.6298  -105.9165   -47.7373 H6            1 RES     
    3739 H6         140.1693  -106.6141   -49.5426 H6            1 RES     
    3740 H6         138.5033  -106.3697   -50.1441 H6            1 RES     
    3741 H6         138.1034  -108.8062   -50.2393 H6            1 RES     
    3742 H6         139.5436  -108.3083   -51.1851 H6            1 RES     
    3743 H6         139.5694  -109.5730   -48.3628 H6            1 RES     
    3744 H6         141.0397  -109.0914   -49.2825 H6            1 RES     
    3745 H6         140.5288  -111.5384   -49.3495 H6            1 RES     
    3746 H6         138.9349  -111.1973   -50.1152 H6            1 RES     
    3747 H6         140.1631  -110.2221   -52.1288 H6            1 RES     
    3748 H6         141.7214  -110.4887   -51.2659 H6            1 RES     
    3749 H6         141.3302  -112.9548   -51.2862 H6            1 RES     
    3750 H6         141.3861  -112.2241   -52.9302 H6            1 RES     
    3751 H6         138.8095  -113.0372   -51.4354 H6            1 RES     
    3752 H6         138.8945  -112.2486   -53.0642 H6            1 RES     
    3753 H6         139.5874  -113.8940   -52.8065 H6            1 RES     
    3754 H6         135.1783  -108.2031   -46.3584 H6            1 RES     
    3755 H6         133.5368  -108.2942   -46.5496 H6            1 RES     
    3756 H6         134.7780  -106.5447   -44.9430 H6            1 RES     
    3757 H6         134.8515  -105.4833   -46.3830 H6            1 RES     
    3758 H6         132.3522  -106.7996   -45.0154 H6            1 RES     
    3759 H6         132.2737  -105.7319   -46.4338 H6            1 RES     
    3760 H6         133.1219  -103.8153   -45.2649 H6            1 RES     
    3761 H6         131.5639  -104.5225   -44.6923 H6            1 RES     
    3762 H6         132.5610  -105.5648   -42.7883 H6            1 RES     
    3763 H6         134.1772  -104.8453   -43.1737 H6            1 RES     
    3764 H6         133.2035  -102.5550   -43.1208 H6            1 RES     
    3765 H6         131.5506  -103.1975   -42.8354 H6            1 RES     
    3766 H6         132.5715  -102.2605   -40.8081 H6            1 RES     
    3767 H6         133.9019  -103.4773   -40.8707 H6            1 RES     
    3768 H6         132.1638  -105.3111   -40.5915 H6            1 RES     
    3769 H6         132.0632  -104.1006   -39.2678 H6            1 RES     
    3770 H6         130.8610  -104.0561   -40.6094 H6            1 RES     
    3771 C0         128.9500  -114.2678   -59.5677 C0            1 RES     
    3772 C1         128.9849  -112.8874   -58.8755 C1            1 RES     
    3773 C1         128.7635  -111.8673   -59.7446 C1            1 RES     
    3774 S2         128.8859  -110.3519   -59.0439 S2            1 RES     
    3775 C1         129.2899  -111.0115   -57.5298 C1            1 RES     
    3776 C1         129.3254  -112.4085   -57.5994 C1            1 RES     
    3777 C1         128.5999  -112.4014   -61.0411 C1            1 RES     
    3778 C1         128.7842  -113.7486   -60.9967 C1            1 RES     
    3779 C1         128.7795  -114.3244   -62.2615 C1            1 RES     
    3780 C1         128.5469  -113.3507   -63.2474 C1            1 RES     
    3781 S2         128.3672  -111.8018   -62.5750 S2            1 RES     
    3782 H3         129.6360  -113.0053   -56.7630 H3            1 RES     
    3783 H3         128.9389  -115.3780   -62.4573 H3            1 RES     
    3784 N4         127.4714  -113.5742   -66.8312 N4            1 RES     
    3785 C1         127.4177  -113.4144   -65.4764 C1            1 RES     
    3786 C1         128.5736  -113.5623   -64.6904 C1            1 RES     
    3787 C1         129.7763  -113.8535   -65.3365 C1            1 RES     
    3788 N4         130.9723  -113.9650   -64.7035 N4            1 RES     
    3789 S2         132.0092  -114.2448   -65.9599 S2            1 RES     
    3790 N4         131.0269  -114.2389   -67.2917 N4            1 RES     
    3791 C1         129.8095  -113.9953   -66.7465 C1            1 RES     
    3792 C1         128.6335  -113.8653   -67.4806 C1            1 RES     
    3793 H5         126.4672  -113.1792   -65.0052 H5            1 RES     
    3794 C0         127.7732  -115.2594   -59.2600 C0            1 RES     
    3795 C0         126.2557  -115.2018   -59.6792 C0            1 RES     
    3796 C0         125.5838  -116.4180   -58.9500 C0            1 RES     
    3797 C0         124.0962  -116.6598   -59.2342 C0            1 RES     
    3798 C0         123.5301  -117.8499   -58.4242 C0            1 RES     
    3799 C0         124.1592  -119.2282   -58.7248 C0            1 RES     
    3800 C0         124.1223  -119.6484   -60.2047 C0            1 RES     
    3801 C0         122.6981  -119.6807   -60.7871 C0            1 RES     
    3802 C0         122.6689  -120.0457   -62.2782 C0            1 RES     
    3803 C0         123.1091  -121.4930   -62.5561 C0            1 RES     
    3804 C0         122.9667  -121.8829   -64.0360 C0            1 RES     
    3805 C0         123.9034  -121.1009   -64.9577 C0            1 RES     
    3806 C0         125.4483  -113.8779   -59.4781 C0            1 RES     
    3807 C0         125.2007  -113.3479   -58.0322 C0            1 RES     
    3808 C0         125.8062  -111.9465   -57.9072 C0            1 RES     
    3809 C0         125.9767  -111.3617   -56.5080 C0            1 RES     
    3810 C0         124.7319  -110.7657   -55.8671 C0            1 RES     
    3811 C0         125.1386  -110.1951   -54.4922 C0            1 RES     
    3812 C0         124.0408  -109.3878   -53.7958 C0            1 RES     
    3813 C0         123.7372  -108.0750   -54.5209 C0            1 RES     
    3814 H6         127.7443  -115.3685   -58.2060 H6            1 RES     
    3815 H6         128.1159  -116.2296   -59.6855 H6            1 RES     
    3816 H6         126.2222  -115.3862   -60.7762 H6            1 RES     
    3817 H6         125.6905  -116.2906   -57.8505 H6            1 RES     
    3818 H6         126.1418  -117.3349   -59.2370 H6            1 RES     
    3819 H6         123.9359  -116.8143   -60.3206 H6            1 RES     
    3820 H6         123.5150  -115.7697   -58.9194 H6            1 RES     
    3821 H6         122.4379  -117.9061   -58.6115 H6            1 RES     
    3822 H6         123.6528  -117.6455   -57.3374 H6            1 RES     
    3823 H6         123.6225  -119.9917   -58.1186 H6            1 RES     
    3824 H6         125.2181  -119.2378   -58.3886 H6            1 RES     
    3825 H6         124.7484  -118.9500   -60.7993 H6            1 RES     
    3826 H6         124.5817  -120.6563   -60.2728 H6            1 RES     
    3827 H6         122.2561  -118.6665   -60.7086 H6            1 RES     
    3828 H6         122.0608  -120.3854   -60.2093 H6            1 RES     
    3829 H6         121.6211  -119.9290   -62.6314 H6            1 RES     
    3830 H6         123.3051  -119.3233   -62.8315 H6            1 RES     
    3831 H6         124.1612  -121.6557   -62.2432 H6            1 RES     
    3832 H6         122.4577  -122.1718   -61.9635 H6            1 RES     
    3833 H6         121.9142  -121.7390   -64.3643 H6            1 RES     
    3834 H6         123.2145  -122.9618   -64.1342 H6            1 RES     
    3835 H6         123.6710  -120.0169   -64.9453 H6            1 RES     
    3836 H6         124.9596  -121.2551   -64.6505 H6            1 RES     
    3837 H6         123.7801  -121.4633   -65.9998 H6            1 RES     
    3838 H6         124.4486  -114.0208   -59.9414 H6            1 RES     
    3839 H6         125.9008  -113.0939   -60.1224 H6            1 RES     
    3840 H6         124.1105  -113.2755   -57.8193 H6            1 RES     
    3841 H6         125.6524  -114.0379   -57.2909 H6            1 RES     
    3842 H6         125.3305  -111.2187   -58.5978 H6            1 RES     
    3843 H6         126.8148  -112.0857   -58.2336 H6            1 RES     
    3844 H6         126.4309  -112.1144   -55.8590 H6            1 RES     
    3845 H6         126.7085  -110.5276   -56.6044 H6            1 RES     
    3846 H6         124.3710  -109.9587   -56.5394 H6            1 RES     
    3847 H6         123.9325  -111.5271   -55.7471 H6            1 RES     
    3848 H6         125.4267  -111.0489   -53.8377 H6            1 RES     
    3849 H6         126.0297  -109.5344   -54.5929 H6            1 RES     
    3850 H6         124.4071  -109.1272   -52.7784 H6            1 RES     
    3851 H6         123.1199  -109.9993   -53.6919 H6            1 RES     
    3852 H6         123.3276  -108.2556   -55.5343 H6            1 RES     
    3853 H6         122.9885  -107.4968   -53.9422 H6            1 RES     
    3854 H6         124.6626  -107.4627   -54.6070 H6            1 RES     
    3855 C0         130.3634  -114.9104   -59.2759 C0            1 RES     
    3856 C0         130.6332  -116.1845   -58.3539 C0            1 RES     
    3857 C0         132.1378  -116.1102   -57.9261 C0            1 RES     
    3858 C0         132.7013  -117.3758   -57.2487 C0            1 RES     
    3859 C0         134.1750  -117.2498   -56.8241 C0            1 RES     
    3860 C0         135.1764  -116.9714   -57.9592 C0            1 RES     
    3861 C0         135.1233  -117.9611   -59.1350 C0            1 RES     
    3862 C0         135.3493  -119.4241   -58.7146 C0            1 RES     
    3863 C0         135.2880  -120.4008   -59.9002 C0            1 RES     
    3864 C0         136.4457  -120.2073   -60.8958 C0            1 RES     
    3865 C0         136.4583  -121.2614   -62.0139 C0            1 RES     
    3866 C0         135.2472  -121.1705   -62.9424 C0            1 RES     
    3867 C0         129.7168  -116.6528   -57.1464 C0            1 RES     
    3868 C0         129.5916  -115.8225   -55.8377 C0            1 RES     
    3869 C0         128.2345  -115.1046   -55.7267 C0            1 RES     
    3870 C0         128.0332  -114.2127   -54.5127 C0            1 RES     
    3871 C0         127.8303  -114.9058   -53.1726 C0            1 RES     
    3872 C0         127.4769  -113.8100   -52.1463 C0            1 RES     
    3873 C0         127.0855  -114.3371   -50.7646 C0            1 RES     
    3874 C0         125.7584  -115.0970   -50.7874 C0            1 RES     
    3875 H6         131.0536  -114.0925   -58.9636 H6            1 RES     
    3876 H6         130.8090  -115.1863   -60.2583 H6            1 RES     
    3877 H6         130.5316  -117.0433   -59.0569 H6            1 RES     
    3878 H6         132.2773  -115.2489   -57.2376 H6            1 RES     
    3879 H6         132.7409  -115.9185   -58.8395 H6            1 RES     
    3880 H6         132.5700  -118.2447   -57.9271 H6            1 RES     
    3881 H6         132.1588  -117.5814   -56.3056 H6            1 RES     
    3882 H6         134.4618  -118.1946   -56.3148 H6            1 RES     
    3883 H6         134.2703  -116.4373   -56.0705 H6            1 RES     
    3884 H6         136.1984  -116.9798   -57.5210 H6            1 RES     
    3885 H6         135.0013  -115.9503   -58.3602 H6            1 RES     
    3886 H6         134.1418  -117.8756   -59.6485 H6            1 RES     
    3887 H6         135.9090  -117.6462   -59.8516 H6            1 RES     
    3888 H6         134.5444  -119.7239   -58.0115 H6            1 RES     
    3889 H6         136.3245  -119.5285   -58.1917 H6            1 RES     
    3890 H6         135.3526  -121.4321   -59.4899 H6            1 RES     
    3891 H6         134.3057  -120.2887   -60.4064 H6            1 RES     
    3892 H6         136.4083  -119.2000   -61.3593 H6            1 RES     
    3893 H6         137.4018  -120.2996   -60.3356 H6            1 RES     
    3894 H6         136.5141  -122.2796   -61.5712 H6            1 RES     
    3895 H6         137.3710  -121.1004   -62.6272 H6            1 RES     
    3896 H6         134.3042  -121.3757   -62.3969 H6            1 RES     
    3897 H6         135.1938  -120.1625   -63.4062 H6            1 RES     
    3898 H6         135.3467  -121.9268   -63.7492 H6            1 RES     
    3899 H6         130.1414  -117.6249   -56.8352 H6            1 RES     
    3900 H6         128.7309  -117.0361   -57.4701 H6            1 RES     
    3901 H6         129.5961  -116.5350   -54.9835 H6            1 RES     
    3902 H6         130.4619  -115.1471   -55.7115 H6            1 RES     
    3903 H6         127.4024  -115.8414   -55.7970 H6            1 RES     
    3904 H6         128.1255  -114.3999   -56.5435 H6            1 RES     
    3905 H6         128.8486  -113.4591   -54.4576 H6            1 RES     
    3906 H6         127.0764  -113.6973   -54.6982 H6            1 RES     
    3907 H6         126.9885  -115.6213   -53.2853 H6            1 RES     
    3908 H6         128.7420  -115.4586   -52.8642 H6            1 RES     
    3909 H6         128.3595  -113.1417   -52.0385 H6            1 RES     
    3910 H6         126.6295  -113.1899   -52.5196 H6            1 RES     
    3911 H6         126.9531  -113.4554   -50.0998 H6            1 RES     
    3912 H6         127.8957  -114.9722   -50.3546 H6            1 RES     
    3913 H6         125.8282  -116.0162   -51.4023 H6            1 RES     
    3914 H6         125.4872  -115.3913   -49.7528 H6            1 RES     
    3915 H6         124.9503  -114.4486   -51.1915 H6            1 RES     
    3916 C0         128.4206  -116.0149   -72.4718 C0            1 RES     
    3917 C1         128.4860  -115.0745   -71.2482 C1            1 RES     
    3918 C1         128.8554  -113.8116   -71.5856 C1            1 RES     
    3919 S2         129.0255  -112.7897   -70.2706 S2            1 RES     
    3920 C1         128.6458  -114.0310   -69.1725 C1            1 RES     
    3921 C1         128.3954  -115.2267   -69.8546 C1            1 RES     
    3922 C1         129.0997  -113.7648   -72.9751 C1            1 RES     
    3923 C1         128.9484  -115.0115   -73.4984 C1            1 RES     
    3924 C1         129.3129  -115.0699   -74.8382 C1            1 RES     
    3925 C1         129.7078  -113.8027   -75.2991 C1            1 RES     
    3926 S2         129.6267  -112.6313   -74.0724 S2            1 RES     
    3927 H3         128.2123  -116.1453   -69.3301 H3            1 RES     
    3928 H3         129.2986  -115.9707   -75.4400 H3            1 RES     
    3929 N4         130.1044  -112.3626   -78.7370 N4            1 RES     
    3930 C1         129.5602  -112.6733   -77.5240 C1            1 RES     
    3931 C1         130.2509  -113.4963   -76.6177 C1            1 RES     
    3932 C1         131.5137  -113.9651   -76.9847 C1            1 RES     
    3933 N4         132.3083  -114.7184   -76.1818 N4            1 RES     
    3934 S2         133.6649  -114.9055   -77.1073 S2            1 RES     
    3935 N4         133.3118  -114.0801   -78.4974 N4            1 RES     
    3936 C1         132.0651  -113.6122   -78.2419 C1            1 RES     
    3937 C1         131.3321  -112.8152   -79.1173 C1            1 RES     
    3938 H5         128.5789  -112.2848   -77.2654 H5            1 RES     
    3939 C0         127.0297  -116.5467   -72.9670 C0            1 RES     
    3940 C0         125.8522  -115.7960   -73.6963 C0            1 RES     
    3941 C0         124.6968  -116.8526   -73.8013 C0            1 RES     
    3942 C0         123.4267  -116.4183   -74.5432 C0            1 RES     
    3943 C0         122.3398  -117.5190   -74.5397 C0            1 RES     
    3944 C0         122.7140  -118.8362   -75.2544 C0            1 RES     
    3945 C0         123.1687  -118.6739   -76.7156 C0            1 RES     
    3946 C0         122.1186  -117.9787   -77.6003 C0            1 RES     
    3947 C0         122.5968  -117.7677   -79.0440 C0            1 RES     
    3948 C0         122.7781  -119.0831   -79.8202 C0            1 RES     
    3949 C0         123.1453  -118.8561   -81.2953 C0            1 RES     
    3950 C0         124.5164  -118.2051   -81.4814 C0            1 RES     
    3951 C0         125.3458  -114.4261   -73.1377 C0            1 RES     
    3952 C0         124.6748  -114.3775   -71.7306 C0            1 RES     
    3953 C0         125.4768  -113.4320   -70.8312 C0            1 RES     
    3954 C0         125.2096  -113.4730   -69.3292 C0            1 RES     
    3955 C0         123.9789  -112.7237   -68.8399 C0            1 RES     
    3956 C0         123.9289  -112.8553   -67.3031 C0            1 RES     
    3957 C0         122.8545  -111.9964   -66.6323 C0            1 RES     
    3958 C0         123.1588  -110.5004   -66.7361 C0            1 RES     
    3959 H6         126.5660  -116.9948   -72.1255 H6            1 RES     
    3960 H6         127.2876  -117.3632   -73.6787 H6            1 RES     
    3961 H6         126.2118  -115.5637   -74.7235 H6            1 RES     
    3962 H6         124.3889  -117.1618   -72.7785 H6            1 RES     
    3963 H6         125.1044  -117.7499   -74.3143 H6            1 RES     
    3964 H6         123.6756  -116.1173   -75.5812 H6            1 RES     
    3965 H6         122.9815  -115.5453   -74.0246 H6            1 RES     
    3966 H6         121.4258  -117.1026   -75.0113 H6            1 RES     
    3967 H6         122.0683  -117.7631   -73.4888 H6            1 RES     
    3968 H6         121.8279  -119.5087   -75.2239 H6            1 RES     
    3969 H6         123.5252  -119.3487   -74.6944 H6            1 RES     
    3970 H6         124.1156  -118.0945   -76.7422 H6            1 RES     
    3971 H6         123.3822  -119.6894   -77.1091 H6            1 RES     
    3972 H6         121.9179  -116.9678   -77.1905 H6            1 RES     
    3973 H6         121.1668  -118.5538   -77.5939 H6            1 RES     
    3974 H6         121.8259  -117.1609   -79.5672 H6            1 RES     
    3975 H6         123.5419  -117.1855   -79.0219 H6            1 RES     
    3976 H6         123.5585  -119.7174   -79.3510 H6            1 RES     
    3977 H6         121.8137  -119.6358   -79.7930 H6            1 RES     
    3978 H6         122.3664  -118.2327   -81.7862 H6            1 RES     
    3979 H6         123.1660  -119.8450   -81.8021 H6            1 RES     
    3980 H6         124.5443  -117.1879   -81.0414 H6            1 RES     
    3981 H6         125.3046  -118.8315   -81.0123 H6            1 RES     
    3982 H6         124.7349  -118.1126   -82.5659 H6            1 RES     
    3983 H6         124.6035  -114.0231   -73.8596 H6            1 RES     
    3984 H6         126.1763  -113.6919   -73.2136 H6            1 RES     
    3985 H6         123.6341  -113.9892   -71.8024 H6            1 RES     
    3986 H6         124.6343  -115.3954   -71.2923 H6            1 RES     
    3987 H6         125.4844  -112.3902   -71.2153 H6            1 RES     
    3988 H6         126.4745  -113.8089   -70.9077 H6            1 RES     
    3989 H6         125.1937  -114.5141   -68.9974 H6            1 RES     
    3990 H6         126.0855  -112.9873   -68.8421 H6            1 RES     
    3991 H6         124.0993  -111.6619   -69.1425 H6            1 RES     
    3992 H6         123.0495  -113.1301   -69.2918 H6            1 RES     
    3993 H6         123.7401  -113.9246   -67.0559 H6            1 RES     
    3994 H6         124.9103  -112.5761   -66.8563 H6            1 RES     
    3995 H6         122.8400  -112.2572   -65.5512 H6            1 RES     
    3996 H6         121.8561  -112.2232   -67.0620 H6            1 RES     
    3997 H6         123.1508  -110.1560   -67.7890 H6            1 RES     
    3998 H6         122.3915  -109.9268   -66.1777 H6            1 RES     
    3999 H6         124.1544  -110.2808   -66.2897 H6            1 RES     
    4000 C0         129.4255  -117.1887   -72.1431 C0            1 RES     
    4001 C0         129.0223  -118.7069   -71.8628 C0            1 RES     
    4002 C0         130.2141  -119.3419   -71.0699 C0            1 RES     
    4003 C0         130.1710  -120.8758   -70.9172 C0            1 RES     
    4004 C0         131.3479  -121.4537   -70.1116 C0            1 RES     
    4005 C0         132.7490  -121.1876   -70.6906 C0            1 RES     
    4006 C0         132.9436  -121.6165   -72.1544 C0            1 RES     
    4007 C0         132.6562  -123.1085   -72.3986 C0            1 RES     
    4008 C0         132.8504  -123.5198   -73.8671 C0            1 RES     
    4009 C0         134.3174  -123.4326   -74.3245 C0            1 RES     
    4010 C0         134.5338  -123.9612   -75.7511 C0            1 RES     
    4011 C0         133.8371  -123.1179   -76.8191 C0            1 RES     
    4012 C0         127.6267  -119.1933   -71.2860 C0            1 RES     
    4013 C0         127.1854  -118.8826   -69.8277 C0            1 RES     
    4014 C0         126.0894  -117.8037   -69.7642 C0            1 RES     
    4015 C0         125.6309  -117.3792   -68.3788 C0            1 RES     
    4016 C0         124.7704  -118.3669   -67.6034 C0            1 RES     
    4017 C0         124.2950  -117.6457   -66.3256 C0            1 RES     
    4018 C0         123.2867  -118.4354   -65.4891 C0            1 RES     
    4019 C0         121.9425  -118.5977   -66.2004 C0            1 RES     
    4020 H6         130.1004  -116.8429   -71.3258 H6            1 RES     
    4021 H6         130.1477  -117.2506   -72.9884 H6            1 RES     
    4022 H6         129.0172  -119.1685   -72.8772 H6            1 RES     
    4023 H6         130.2593  -118.8870   -70.0568 H6            1 RES     
    4024 H6         131.1534  -119.0814   -71.6035 H6            1 RES     
    4025 H6         130.1274  -121.3438   -71.9230 H6            1 RES     
    4026 H6         129.2711  -121.1808   -70.3487 H6            1 RES     
    4027 H6         131.1947  -122.5510   -70.0298 H6            1 RES     
    4028 H6         131.3173  -121.0473   -69.0768 H6            1 RES     
    4029 H6         133.4875  -121.7208   -70.0527 H6            1 RES     
    4030 H6         132.9762  -120.1027   -70.6162 H6            1 RES     
    4031 H6         132.2879  -121.0056   -72.8109 H6            1 RES     
    4032 H6         133.9960  -121.3846   -72.4166 H6            1 RES     
    4033 H6         131.5954  -123.3157   -72.1462 H6            1 RES     
    4034 H6         133.2986  -123.7368   -71.7444 H6            1 RES     
    4035 H6         132.5186  -124.5762   -73.9671 H6            1 RES     
    4036 H6         132.1969  -122.8881   -74.5056 H6            1 RES     
    4037 H6         134.6890  -122.3885   -74.2736 H6            1 RES     
    4038 H6         134.9306  -124.0563   -73.6379 H6            1 RES     
    4039 H6         134.1844  -125.0143   -75.8197 H6            1 RES     
    4040 H6         135.6249  -123.9445   -75.9616 H6            1 RES     
    4041 H6         132.7357  -123.1383   -76.6944 H6            1 RES     
    4042 H6         134.1948  -122.0672   -76.7723 H6            1 RES     
    4043 H6         134.0749  -123.5287   -77.8228 H6            1 RES     
    4044 H6         127.6683  -120.2961   -71.3491 H6            1 RES     
    4045 H6         126.7886  -119.0512   -71.9939 H6            1 RES     
    4046 H6         126.6963  -119.7951   -69.4208 H6            1 RES     
    4047 H6         128.0624  -118.6616   -69.1862 H6            1 RES     
    4048 H6         125.2109  -118.1110   -70.3759 H6            1 RES     
    4049 H6         126.4687  -116.8726   -70.1703 H6            1 RES     
    4050 H6         126.5042  -117.0460   -67.7770 H6            1 RES     
    4051 H6         124.9638  -116.5193   -68.5548 H6            1 RES     
    4052 H6         123.9046  -118.6376   -68.2440 H6            1 RES     
    4053 H6         125.3409  -119.2851   -67.3515 H6            1 RES     
    4054 H6         125.1886  -117.4290   -65.6998 H6            1 RES     
    4055 H6         123.8224  -116.6705   -66.5855 H6            1 RES     
    4056 H6         123.1030  -117.8550   -64.5583 H6            1 RES     
    4057 H6         123.7083  -119.4226   -65.2145 H6            1 RES     
    4058 H6         122.0424  -119.2047   -67.1221 H6            1 RES     
    4059 H6         121.2292  -119.1103   -65.5229 H6            1 RES     
    4060 H6         121.5233  -117.6018   -66.4636 H6            1 RES     
    4061 C0         132.6243  -112.8684   -84.3999 C0            1 RES     
    4062 C1         132.4108  -112.5031   -82.9144 C1            1 RES     
    4063 C1         133.1528  -111.4309   -82.5337 C1            1 RES     
    4064 S2         133.0150  -111.0650   -80.9059 S2            1 RES     
    4065 C1         131.9702  -112.3780   -80.6311 C1            1 RES     
    4066 C1         131.7494  -113.0833   -81.8192 C1            1 RES     
    4067 C1         133.9265  -110.9995   -83.6328 C1            1 RES     
    4068 C1         133.7205  -111.8400   -84.6825 C1            1 RES     
    4069 C1         134.5586  -111.5608   -85.7553 C1            1 RES     
    4070 C1         135.3728  -110.4514   -85.4712 C1            1 RES     
    4071 S2         135.0786  -109.8340   -83.9170 S2            1 RES     
    4072 H3         131.1766  -113.9910   -81.8358 H3            1 RES     
    4073 H3         134.5825  -112.1256   -86.6795 H3            1 RES     
    4074 N4         137.3949  -108.1640   -87.6459 N4            1 RES     
    4075 C1         136.3643  -108.6524   -86.8953 C1            1 RES     
    4076 C1         136.4430  -109.9298   -86.3140 C1            1 RES     
    4077 C1         137.6103  -110.6705   -86.5076 C1            1 RES     
    4078 N4         137.8378  -111.8900   -85.9556 N4            1 RES     
    4079 S2         139.3705  -112.2286   -86.4732 S2            1 RES     
    4080 N4         139.7837  -110.9056   -87.3772 N4            1 RES     
    4081 C1         138.6741  -110.1329   -87.2749 C1            1 RES     
    4082 C1         138.5398  -108.8733   -87.8528 C1            1 RES     
    4083 H5         135.4729  -108.0468   -86.7566 H5            1 RES     
    4084 C0         131.4590  -112.6470   -85.4275 C0            1 RES     
    4085 C0         130.8603  -111.3150   -86.0184 C0            1 RES     
    4086 C0         129.6359  -111.7681   -86.8890 C0            1 RES     
    4087 C0         128.8894  -110.6711   -87.6581 C0            1 RES     
    4088 C0         127.6739  -111.2250   -88.4382 C0            1 RES     
    4089 C0         127.9966  -112.2528   -89.5452 C0            1 RES     
    4090 C0         129.0118  -111.7740   -90.5979 C0            1 RES     
    4091 C0         128.5755  -110.4828   -91.3129 C0            1 RES     
    4092 C0         129.6156  -109.9766   -92.3226 C0            1 RES     
    4093 C0         129.7906  -110.9110   -93.5317 C0            1 RES     
    4094 C0         130.7475  -110.3394   -94.5899 C0            1 RES     
    4095 C0         132.1888  -110.2149   -94.0944 C0            1 RES     
    4096 C0         130.4925  -110.1392   -85.0554 C0            1 RES     
    4097 C0         129.3522  -110.3380   -84.0100 C0            1 RES     
    4098 C0         129.9247  -110.1260   -82.6053 C0            1 RES     
    4099 C0         129.0878  -110.5828   -81.4138 C0            1 RES     
    4100 C0         127.9631  -109.6539   -80.9806 C0            1 RES     
    4101 C0         127.2864  -110.2805   -79.7434 C0            1 RES     
    4102 C0         126.2542  -109.3769   -79.0649 C0            1 RES     
    4103 C0         126.8981  -108.1602   -78.3967 C0            1 RES     
    4104 H6         130.6156  -113.1552   -85.0346 H6            1 RES     
    4105 H6         131.7875  -113.2008   -86.3358 H6            1 RES     
    4106 H6         131.6359  -110.8909   -86.6945 H6            1 RES     
    4107 H6         128.8912  -112.2761   -86.2380 H6            1 RES     
    4108 H6         130.0023  -112.5152   -87.6253 H6            1 RES     
    4109 H6         129.5856  -110.1435   -88.3414 H6            1 RES     
    4110 H6         128.4820  -109.9332   -86.9379 H6            1 RES     
    4111 H6         127.1353  -110.3674   -88.8917 H6            1 RES     
    4112 H6         126.9650  -111.6998   -87.7242 H6            1 RES     
    4113 H6         127.0445  -112.5196   -90.0559 H6            1 RES     
    4114 H6         128.3875  -113.1864   -89.0869 H6            1 RES     
    4115 H6         129.9959  -111.6112   -90.1100 H6            1 RES     
    4116 H6         129.1318  -112.5934   -91.3367 H6            1 RES     
    4117 H6         128.4595  -109.6777   -90.5590 H6            1 RES     
    4118 H6         127.5959  -110.6332   -91.8173 H6            1 RES     
    4119 H6         129.2671  -108.9891   -92.6962 H6            1 RES     
    4120 H6         130.5796  -109.8276   -91.7924 H6            1 RES     
    4121 H6         130.1627  -111.9070   -93.2140 H6            1 RES     
    4122 H6         128.7965  -111.0445   -94.0116 H6            1 RES     
    4123 H6         130.3829  -109.3458   -94.9307 H6            1 RES     
    4124 H6         130.7457  -111.0259   -95.4639 H6            1 RES     
    4125 H6         132.2663  -109.4986   -93.2518 H6            1 RES     
    4126 H6         132.5695  -111.2070   -93.7711 H6            1 RES     
    4127 H6         132.8298  -109.8402   -94.9196 H6            1 RES     
    4128 H6         130.2024  -109.2696   -85.6831 H6            1 RES     
    4129 H6         131.4264  -109.7830   -84.5700 H6            1 RES     
    4130 H6         128.5373  -109.5964   -84.1686 H6            1 RES     
    4131 H6         128.9186  -111.3539   -84.1076 H6            1 RES     
    4132 H6         130.3131  -109.0960   -82.4594 H6            1 RES     
    4133 H6         130.7619  -110.7906   -82.5793 H6            1 RES     
    4134 H6         128.7127  -111.5910   -81.6061 H6            1 RES     
    4135 H6         129.7862  -110.6525   -80.5490 H6            1 RES     
    4136 H6         128.4246  -108.6761   -80.7265 H6            1 RES     
    4137 H6         127.2207  -109.5081   -81.7934 H6            1 RES     
    4138 H6         126.7839  -111.2205   -80.0660 H6            1 RES     
    4139 H6         128.0489  -110.5534   -78.9787 H6            1 RES     
    4140 H6         125.7593  -109.9707   -78.2652 H6            1 RES     
    4141 H6         125.4813  -109.0585   -79.7957 H6            1 RES     
    4142 H6         127.3804  -107.4957   -79.1404 H6            1 RES     
    4143 H6         126.1211  -107.5766   -77.8626 H6            1 RES     
    4144 H6         127.6604  -108.4896   -77.6557 H6            1 RES     
    4145 C0         133.1322  -114.3642   -84.3871 C0            1 RES     
    4146 C0         132.3260  -115.6249   -84.9409 C0            1 RES     
    4147 C0         132.9381  -116.8842   -84.2396 C0            1 RES     
    4148 C0         132.4999  -118.2462   -84.8148 C0            1 RES     
    4149 C0         133.1064  -119.4552   -84.0809 C0            1 RES     
    4150 C0         134.6433  -119.5385   -84.0863 C0            1 RES     
    4151 C0         135.2964  -119.4742   -85.4770 C0            1 RES     
    4152 C0         134.8051  -120.5732   -86.4356 C0            1 RES     
    4153 C0         135.4635  -120.4920   -87.8224 C0            1 RES     
    4154 C0         136.9720  -120.7960   -87.7879 C0            1 RES     
    4155 C0         137.6078  -120.8386   -89.1862 C0            1 RES     
    4156 C0         137.5918  -119.4856   -89.8978 C0            1 RES     
    4157 C0         130.7460  -115.7332   -85.0354 C0            1 RES     
    4158 C0         129.8486  -115.8074   -83.7676 C0            1 RES     
    4159 C0         129.0844  -114.4957   -83.5130 C0            1 RES     
    4160 C0         128.2255  -114.4401   -82.2604 C0            1 RES     
    4161 C0         126.9343  -115.2462   -82.2721 C0            1 RES     
    4162 C0         126.1682  -114.8908   -80.9814 C0            1 RES     
    4163 C0         124.7649  -115.4928   -80.8902 C0            1 RES     
    4164 C0         123.8081  -114.8947   -81.9226 C0            1 RES     
    4165 H6         133.4907  -114.5953   -83.3570 H6            1 RES     
    4166 H6         134.0950  -114.3900   -84.9461 H6            1 RES     
    4167 H6         132.6172  -115.6711   -86.0157 H6            1 RES     
    4168 H6         132.6817  -116.8581   -83.1585 H6            1 RES     
    4169 H6         134.0437  -116.8188   -84.3302 H6            1 RES     
    4170 H6         132.7520  -118.2868   -85.8953 H6            1 RES     
    4171 H6         131.4059  -118.3766   -84.7043 H6            1 RES     
    4172 H6         132.6944  -120.3753   -84.5477 H6            1 RES     
    4173 H6         132.7630  -119.4507   -83.0230 H6            1 RES     
    4174 H6         134.9342  -120.4902   -83.5901 H6            1 RES     
    4175 H6         135.0574  -118.7103   -83.4726 H6            1 RES     
    4176 H6         135.1040  -118.4792   -85.9322 H6            1 RES     
    4177 H6         136.3901  -119.5687   -85.3195 H6            1 RES     
    4178 H6         133.7131  -120.4509   -86.5925 H6            1 RES     
    4179 H6         134.9827  -121.5776   -85.9937 H6            1 RES     
    4180 H6         134.9725  -121.2484   -88.4726 H6            1 RES     
    4181 H6         135.2706  -119.4861   -88.2522 H6            1 RES     
    4182 H6         137.5151  -120.0477   -87.1747 H6            1 RES     
    4183 H6         137.1118  -121.7968   -87.3240 H6            1 RES     
    4184 H6         137.0895  -121.5965   -89.8128 H6            1 RES     
    4185 H6         138.6681  -121.1511   -89.0718 H6            1 RES     
    4186 H6         136.5550  -119.1429   -90.0897 H6            1 RES     
    4187 H6         138.1254  -118.7252   -89.2888 H6            1 RES     
    4188 H6         138.1068  -119.5806   -90.8768 H6            1 RES     
    4189 H6         130.5635  -116.6793   -85.5772 H6            1 RES     
    4190 H6         130.3070  -115.0587   -85.7944 H6            1 RES     
    4191 H6         129.0503  -116.5571   -83.9620 H6            1 RES     
    4192 H6         130.4288  -116.1596   -82.8909 H6            1 RES     
    4193 H6         128.4720  -114.2279   -84.4039 H6            1 RES     
    4194 H6         129.7886  -113.6900   -83.3383 H6            1 RES     
    4195 H6         128.8428  -114.6803   -81.3676 H6            1 RES     
    4196 H6         127.8895  -113.3920   -82.1964 H6            1 RES     
    4197 H6         126.3527  -114.9414   -83.1677 H6            1 RES     
    4198 H6         127.1412  -116.3355   -82.3231 H6            1 RES     
    4199 H6         126.7685  -115.2474   -80.1155 H6            1 RES     
    4200 H6         126.0644  -113.7854   -80.8857 H6            1 RES     
    4201 H6         124.3643  -115.2460   -79.8825 H6            1 RES     
    4202 H6         124.8148  -116.5951   -80.9921 H6            1 RES     
    4203 H6         124.1244  -115.1369   -82.9566 H6            1 RES     
    4204 H6         122.7919  -115.3104   -81.7641 H6            1 RES     
    4205 H6         123.7578  -113.7898   -81.8063 H6            1 RES     
    4206 C0         141.7544  -107.5662   -92.0404 C0            1 RES     
    4207 C1         141.0618  -107.6860   -90.6650 C1            1 RES     
    4208 C1         141.8124  -107.1632   -89.6607 C1            1 RES     
    4209 S2         141.1318  -107.3596   -88.1439 S2            1 RES     
    4210 C1         139.8004  -108.2060   -88.7778 C1            1 RES     
    4211 C1         139.9131  -108.3236   -90.1675 C1            1 RES     
    4212 C1         143.0299  -106.6940   -90.1994 C1            1 RES     
    4213 C1         143.0717  -106.9817   -91.5285 C1            1 RES     
    4214 C1         144.3027  -106.6766   -92.0966 C1            1 RES     
    4215 C1         145.1639  -106.1148   -91.1390 C1            1 RES     
    4216 S2         144.4282  -106.0110   -89.6121 S2            1 RES     
    4217 H3         139.2072  -108.8921   -90.7426 H3            1 RES     
    4218 H3         144.5615  -106.8537   -93.1337 H3            1 RES     
    4219 N4         148.3291  -104.1277   -91.4273 N4            1 RES     
    4220 C1         147.0063  -104.4316   -91.2788 C1            1 RES     
    4221 C1         146.5655  -105.7649   -91.3406 C1            1 RES     
    4222 C1         147.5195  -106.7655   -91.5344 C1            1 RES     
    4223 N4         147.2358  -108.0930   -91.5560 N4            1 RES     
    4224 S2         148.7321  -108.7682   -91.7483 S2            1 RES     
    4225 N4         149.7488  -107.4641   -91.8119 N4            1 RES     
    4226 C1         148.8893  -106.4255   -91.6661 C1            1 RES     
    4227 C1         149.2752  -105.0883   -91.6241 C1            1 RES     
    4228 H5         146.2903  -103.6298   -91.1204 H5            1 RES     
    4229 C0         141.1663  -106.5927   -93.1218 C0            1 RES     
    4230 C0         141.1588  -105.0184   -93.1799 C0            1 RES     
    4231 C0         140.3070  -104.6603   -94.4482 C0            1 RES     
    4232 C0         140.1855  -103.1732   -94.8033 C0            1 RES     
    4233 C0         139.2837  -102.9366   -96.0377 C0            1 RES     
    4234 C0         139.7784  -103.5600   -97.3615 C0            1 RES     
    4235 C0         141.2038  -103.1543   -97.7759 C0            1 RES     
    4236 C0         141.3810  -101.6319   -97.9156 C0            1 RES     
    4237 C0         142.8178  -101.2265   -98.2743 C0            1 RES     
    4238 C0         143.2414  -101.6797   -99.6817 C0            1 RES     
    4239 C0         144.6376  -101.1706  -100.0741 C0            1 RES     
    4240 C0         145.7573  -101.7625   -99.2172 C0            1 RES     
    4241 C0         140.7132  -104.2009   -91.9236 C0            1 RES     
    4242 C0         139.2410  -104.3163   -91.4217 C0            1 RES     
    4243 C0         139.2478  -104.8286   -89.9783 C0            1 RES     
    4244 C0         137.9319  -105.3286   -89.3890 C0            1 RES     
    4245 C0         136.9637  -104.2639   -88.8945 C0            1 RES     
    4246 C0         135.7353  -104.9851   -88.3010 C0            1 RES     
    4247 C0         134.7479  -104.0609   -87.5847 C0            1 RES     
    4248 C0         135.3301  -103.4768   -86.2958 C0            1 RES     
    4249 H6         140.1467  -106.8586   -93.2381 H6            1 RES     
    4250 H6         141.6934  -106.8774   -94.0604 H6            1 RES     
    4251 H6         142.2104  -104.7024   -93.3609 H6            1 RES     
    4252 H6         139.2742  -105.0513   -94.3185 H6            1 RES     
    4253 H6         140.7575  -105.1852   -95.3177 H6            1 RES     
    4254 H6         141.1919  -102.7362   -94.9643 H6            1 RES     
    4255 H6         139.7026  -102.6355   -93.9625 H6            1 RES     
    4256 H6         139.1708  -101.8417   -96.1775 H6            1 RES     
    4257 H6         138.2655  -103.3340   -95.8298 H6            1 RES     
    4258 H6         139.0698  -103.2651   -98.1673 H6            1 RES     
    4259 H6         139.7407  -104.6681   -97.2907 H6            1 RES     
    4260 H6         141.9270  -103.5428   -97.0282 H6            1 RES     
    4261 H6         141.4193  -103.6507   -98.7448 H6            1 RES     
    4262 H6         141.1600  -101.1546   -96.9392 H6            1 RES     
    4263 H6         140.6711  -101.2284   -98.6706 H6            1 RES     
    4264 H6         142.8721  -100.1166   -98.2375 H6            1 RES     
    4265 H6         143.5034  -101.6343   -97.5021 H6            1 RES     
    4266 H6         143.2283  -102.7863   -99.7639 H6            1 RES     
    4267 H6         142.5128  -101.2650  -100.4119 H6            1 RES     
    4268 H6         144.6659  -100.0609  -100.0106 H6            1 RES     
    4269 H6         144.8268  -101.4609  -101.1301 H6            1 RES     
    4270 H6         145.6547  -101.4634   -98.1546 H6            1 RES     
    4271 H6         145.7506  -102.8708   -99.2906 H6            1 RES     
    4272 H6         146.7365  -101.3883   -99.5828 H6            1 RES     
    4273 H6         140.8931  -103.1264   -92.1413 H6            1 RES     
    4274 H6         141.4353  -104.4032   -91.1038 H6            1 RES     
    4275 H6         138.7400  -103.3223   -91.4352 H6            1 RES     
    4276 H6         138.6670  -105.0013   -92.0783 H6            1 RES     
    4277 H6         139.7654  -104.1316   -89.2861 H6            1 RES     
    4278 H6         139.8377  -105.7185   -90.0372 H6            1 RES     
    4279 H6         137.4492  -105.9956   -90.1074 H6            1 RES     
    4280 H6         138.2006  -105.9437   -88.5002 H6            1 RES     
    4281 H6         137.4926  -103.6762   -88.1146 H6            1 RES     
    4282 H6         136.6522  -103.5850   -89.7162 H6            1 RES     
    4283 H6         135.2050  -105.5015   -89.1331 H6            1 RES     
    4284 H6         136.0556  -105.7646   -87.5727 H6            1 RES     
    4285 H6         133.8607  -104.6691   -87.3016 H6            1 RES     
    4286 H6         134.4152  -103.2500   -88.2663 H6            1 RES     
    4287 H6         136.1997  -102.8223   -86.5025 H6            1 RES     
    4288 H6         134.5561  -102.8727   -85.7804 H6            1 RES     
    4289 H6         135.6468  -104.2968   -85.6132 H6            1 RES     
    4290 C0         141.8714  -109.0488   -92.5730 C0            1 RES     
    4291 C0         141.0896  -109.6510   -93.8269 C0            1 RES     
    4292 C0         141.0819  -111.2056   -93.6383 C0            1 RES     
    4293 C0         140.6146  -112.0228   -94.8597 C0            1 RES     
    4294 C0         140.6002  -113.5431   -94.6220 C0            1 RES     
    4295 C0         141.9560  -114.1762   -94.2611 C0            1 RES     
    4296 C0         143.0989  -113.8791   -95.2460 C0            1 RES     
    4297 C0         142.7930  -114.3171   -96.6892 C0            1 RES     
    4298 C0         143.9429  -114.0086   -97.6617 C0            1 RES     
    4299 C0         145.2086  -114.8358   -97.3741 C0            1 RES     
    4300 C0         146.3154  -114.6220   -98.4184 C0            1 RES     
    4301 C0         146.8801  -113.2014   -98.4170 C0            1 RES     
    4302 C0         139.6922  -109.1331   -94.3709 C0            1 RES     
    4303 C0         138.3772  -109.3067   -93.5593 C0            1 RES     
    4304 C0         137.8857  -107.9817   -92.9494 C0            1 RES     
    4305 C0         136.6398  -108.0521   -92.0819 C0            1 RES     
    4306 C0         135.3131  -108.2714   -92.7953 C0            1 RES     
    4307 C0         134.2015  -108.1300   -91.7354 C0            1 RES     
    4308 C0         132.7795  -108.1674   -92.2982 C0            1 RES     
    4309 C0         132.4630  -106.9432   -93.1585 C0            1 RES     
    4310 H6         141.7360  -109.7360   -91.7055 H6            1 RES     
    4311 H6         142.9445  -109.2305   -92.8086 H6            1 RES     
    4312 H6         141.7611  -109.4259   -94.6875 H6            1 RES     
    4313 H6         140.4346  -111.4629   -92.7722 H6            1 RES     
    4314 H6         142.1190  -111.5229   -93.3959 H6            1 RES     
    4315 H6         141.2546  -111.7766   -95.7328 H6            1 RES     
    4316 H6         139.5658  -111.7728   -95.1115 H6            1 RES     
    4317 H6         140.2118  -114.0256   -95.5442 H6            1 RES     
    4318 H6         139.8796  -113.7792   -93.8083 H6            1 RES     
    4319 H6         141.8101  -115.2765   -94.1924 H6            1 RES     
    4320 H6         142.2683  -113.8246   -93.2546 H6            1 RES     
    4321 H6         143.3262  -112.7916   -95.2343 H6            1 RES     
    4322 H6         143.9926  -114.4159   -94.8675 H6            1 RES     
    4323 H6         141.9067  -113.7571   -97.0541 H6            1 RES     
    4324 H6         142.5556  -115.4025   -96.7203 H6            1 RES     
    4325 H6         143.5920  -114.2574   -98.6869 H6            1 RES     
    4326 H6         144.1622  -112.9204   -97.6236 H6            1 RES     
    4327 H6         145.6186  -114.6004   -96.3704 H6            1 RES     
    4328 H6         144.9297  -115.9119   -97.3948 H6            1 RES     
    4329 H6         145.9307  -114.8702   -99.4314 H6            1 RES     
    4330 H6         147.1479  -115.3200   -98.1841 H6            1 RES     
    4331 H6         146.1058  -112.4591   -98.6975 H6            1 RES     
    4332 H6         147.2861  -112.9506   -97.4139 H6            1 RES     
    4333 H6         147.7030  -113.1336   -99.1593 H6            1 RES     
    4334 H6         139.5323  -109.6962   -95.3087 H6            1 RES     
    4335 H6         139.7476  -108.1272   -94.8279 H6            1 RES     
    4336 H6         137.5747  -109.5947   -94.2736 H6            1 RES     
    4337 H6         138.4732  -110.1267   -92.8191 H6            1 RES     
    4338 H6         137.7479  -107.2180   -93.7482 H6            1 RES     
    4339 H6         138.6243  -107.6041   -92.2512 H6            1 RES     
    4340 H6         136.7873  -108.7945   -91.2677 H6            1 RES     
    4341 H6         136.5469  -107.0458   -91.6413 H6            1 RES     
    4342 H6         135.2128  -107.4853   -93.5734 H6            1 RES     
    4343 H6         135.2765  -109.2705   -93.2773 H6            1 RES     
    4344 H6         134.3186  -108.9573   -91.0012 H6            1 RES     
    4345 H6         134.3161  -107.1701   -91.1810 H6            1 RES     
    4346 H6         132.0811  -108.1559   -91.4327 H6            1 RES     
    4347 H6         132.6199  -109.1026   -92.8706 H6            1 RES     
    4348 H6         133.0974  -106.9109   -94.0665 H6            1 RES     
    4349 H6         131.4015  -106.9848   -93.4781 H6            1 RES     
    4350 H6         132.6172  -106.0105   -92.5727 H6            1 RES     
    4351 C0         154.0777  -103.6889   -93.7587 C0            1 RES     
    4352 C1         152.8932  -104.0144   -92.8223 C1            1 RES     
    4353 C1         153.2850  -104.1849   -91.5328 C1            1 RES     
    4354 S2         152.0388  -104.6296   -90.5074 S2            1 RES     
    4355 C1         150.9114  -104.6538   -91.7799 C1            1 RES     
    4356 C1         151.5312  -104.3162   -92.9880 C1            1 RES     
    4357 C1         154.6873  -104.0394   -91.4603 C1            1 RES     
    4358 C1         155.1823  -103.8437   -92.7123 C1            1 RES     
    4359 C1         156.5718  -103.8347   -92.7355 C1            1 RES     
    4360 C1         157.0893  -103.9960   -91.4392 C1            1 RES     
    4361 S2         155.8564  -104.1648   -90.2838 S2            1 RES     
    4362 H3         151.0007  -104.3500   -93.9206 H3            1 RES     
    4363 H3         157.1705  -103.7239   -93.6317 H3            1 RES     
    4364 N4         160.4683  -103.3394   -89.9555 N4            1 RES     
    4365 C1         159.1619  -103.1686   -90.3135 C1            1 RES     
    4366 C1         158.4972  -104.1375   -91.0851 C1            1 RES     
    4367 C1         159.2032  -105.2843   -91.4527 C1            1 RES     
    4368 N4         158.6643  -106.3198   -92.1461 N4            1 RES     
    4369 S2         159.9260  -107.3847   -92.2228 S2            1 RES     
    4370 N4         161.1475  -106.6086   -91.4204 N4            1 RES     
    4371 C1         160.5531  -105.4469   -91.0518 C1            1 RES     
    4372 C1         161.1774  -104.4478   -90.3097 C1            1 RES     
    4373 H5         158.6382  -102.2684   -90.0037 H5            1 RES     
    4374 C0         154.1927  -102.2587   -94.3943 C0            1 RES     
    4375 C0         154.5576  -100.8759   -93.7335 C0            1 RES     
    4376 C0         154.3742   -99.8159   -94.8760 C0            1 RES     
    4377 C0         154.7345   -98.3640   -94.5377 C0            1 RES     
    4378 C0         154.4662   -97.4025   -95.7194 C0            1 RES     
    4379 C0         155.2892   -97.6645   -97.0000 C0            1 RES     
    4380 C0         156.8141   -97.6930   -96.7957 C0            1 RES     
    4381 C0         157.3644   -96.3944   -96.1795 C0            1 RES     
    4382 C0         158.8777   -96.4466   -95.9250 C0            1 RES     
    4383 C0         159.7077   -96.5067   -97.2184 C0            1 RES     
    4384 C0         161.2208   -96.4428   -96.9563 C0            1 RES     
    4385 C0         161.7531   -97.6605   -96.1999 C0            1 RES     
    4386 C0         153.8480  -100.4408   -92.4098 C0            1 RES     
    4387 C0         152.3112  -100.1747   -92.4204 C0            1 RES     
    4388 C0         151.6374  -101.1188   -91.4201 C0            1 RES     
    4389 C0         150.1207  -101.2724   -91.4893 C0            1 RES     
    4390 C0         149.2982  -100.1689   -90.8401 C0            1 RES     
    4391 C0         147.8090  -100.5471   -90.9828 C0            1 RES     
    4392 C0         146.8512   -99.6347   -90.2132 C0            1 RES     
    4393 C0         146.9945   -99.7890   -88.6976 C0            1 RES     
    4394 H6         153.2692  -102.0746   -94.8812 H6            1 RES     
    4395 H6         154.9684  -102.3732   -95.1848 H6            1 RES     
    4396 H6         155.6374  -100.9257   -93.4689 H6            1 RES     
    4397 H6         153.3146   -99.8202   -95.2133 H6            1 RES     
    4398 H6         155.0012  -100.1339   -95.7364 H6            1 RES     
    4399 H6         155.7930   -98.2996   -94.2132 H6            1 RES     
    4400 H6         154.0926   -98.0133   -93.7045 H6            1 RES     
    4401 H6         154.6628   -96.3669   -95.3729 H6            1 RES     
    4402 H6         153.3877   -97.4446   -95.9892 H6            1 RES     
    4403 H6         155.0381   -96.8715   -97.7394 H6            1 RES     
    4404 H6         154.9822   -98.6324   -97.4509 H6            1 RES     
    4405 H6         157.0803   -98.5521   -96.1444 H6            1 RES     
    4406 H6         157.2767   -97.8657   -97.7896 H6            1 RES     
    4407 H6         156.8898   -96.2388   -95.1894 H6            1 RES     
    4408 H6         157.1163   -95.5248   -96.8267 H6            1 RES     
    4409 H6         159.1576   -95.5205   -95.3771 H6            1 RES     
    4410 H6         159.0963   -97.3171   -95.2713 H6            1 RES     
    4411 H6         159.4830   -97.4294   -97.7926 H6            1 RES     
    4412 H6         159.4356   -95.6290   -97.8444 H6            1 RES     
    4413 H6         161.4670   -95.5165   -96.3927 H6            1 RES     
    4414 H6         161.7397   -96.3977   -97.9380 H6            1 RES     
    4415 H6         161.3108   -97.7320   -95.1858 H6            1 RES     
    4416 H6         161.5303   -98.5901   -96.7657 H6            1 RES     
    4417 H6         162.8535   -97.5696   -96.0854 H6            1 RES     
    4418 H6         154.3321   -99.5032   -92.0620 H6            1 RES     
    4419 H6         154.1261  -101.1636   -91.6131 H6            1 RES     
    4420 H6         152.0894   -99.1279   -92.1136 H6            1 RES     
    4421 H6         151.9047  -100.3292   -93.4406 H6            1 RES     
    4422 H6         151.9823  -100.9457   -90.3789 H6            1 RES     
    4423 H6         151.9900  -102.0833   -91.7181 H6            1 RES     
    4424 H6         149.8239  -101.4234   -92.5300 H6            1 RES     
    4425 H6         149.8755  -102.2095   -90.9395 H6            1 RES     
    4426 H6         149.5946  -100.1246   -89.7707 H6            1 RES     
    4427 H6         149.4929   -99.1842   -91.3150 H6            1 RES     
    4428 H6         147.5476  -100.5112   -92.0648 H6            1 RES     
    4429 H6         147.6364  -101.5896   -90.6306 H6            1 RES     
    4430 H6         145.8133   -99.9329   -90.4798 H6            1 RES     
    4431 H6         147.0012   -98.5766   -90.5146 H6            1 RES     
    4432 H6         147.9970   -99.4708   -88.3496 H6            1 RES     
    4433 H6         146.2352   -99.1618   -88.1880 H6            1 RES     
    4434 H6         146.8278  -100.8494   -88.4037 H6            1 RES     
    4435 C0         154.0627  -104.8285   -94.8527 C0            1 RES     
    4436 C0         153.7233  -104.6287   -96.3990 C0            1 RES     
    4437 C0         153.2980  -106.0340   -96.9436 C0            1 RES     
    4438 C0         153.1791  -106.1464   -98.4769 C0            1 RES     
    4439 C0         152.7361  -107.5367   -98.9659 C0            1 RES     
    4440 C0         153.6645  -108.7050   -98.5891 C0            1 RES     
    4441 C0         155.1371  -108.5266   -98.9943 C0            1 RES     
    4442 C0         155.3332  -108.2939  -100.5028 C0            1 RES     
    4443 C0         156.8097  -108.1124  -100.8905 C0            1 RES     
    4444 C0         157.6436  -109.3901  -100.6875 C0            1 RES     
    4445 C0         159.0888  -109.2499  -101.1905 C0            1 RES     
    4446 C0         159.9071  -108.2300  -100.3985 C0            1 RES     
    4447 C0         152.8040  -103.4812   -96.9950 C0            1 RES     
    4448 C0         151.2732  -103.4301   -96.7268 C0            1 RES     
    4449 C0         150.8886  -102.3163   -95.7364 C0            1 RES     
    4450 C0         149.4204  -102.2206   -95.3557 C0            1 RES     
    4451 C0         148.4673  -101.6773   -96.4110 C0            1 RES     
    4452 C0         147.0905  -101.5144   -95.7353 C0            1 RES     
    4453 C0         146.0335  -100.8312   -96.6049 C0            1 RES     
    4454 C0         146.3598   -99.3603   -96.8675 C0            1 RES     
    4455 H6         153.4492  -105.6724   -94.4597 H6            1 RES     
    4456 H6         155.0728  -105.2971   -94.8542 H6            1 RES     
    4457 H6         154.7103  -104.3827   -96.8545 H6            1 RES     
    4458 H6         152.3233  -106.3186   -96.4916 H6            1 RES     
    4459 H6         154.0584  -106.7718   -96.6084 H6            1 RES     
    4460 H6         154.1476  -105.8664   -98.9419 H6            1 RES     
    4461 H6         152.3969  -105.4592   -98.8536 H6            1 RES     
    4462 H6         152.6443  -107.4923  -100.0722 H6            1 RES     
    4463 H6         151.7212  -107.7580   -98.5683 H6            1 RES     
    4464 H6         153.2636  -109.6258   -99.0665 H6            1 RES     
    4465 H6         153.6263  -108.8638   -97.4902 H6            1 RES     
    4466 H6         155.5764  -107.6745   -98.4327 H6            1 RES     
    4467 H6         155.6675  -109.4486   -98.6801 H6            1 RES     
    4468 H6         154.8093  -107.3593  -100.7929 H6            1 RES     
    4469 H6         154.8930  -109.1338  -101.0826 H6            1 RES     
    4470 H6         156.8437  -107.8443  -101.9689 H6            1 RES     
    4471 H6         157.2317  -107.2659  -100.3081 H6            1 RES     
    4472 H6         157.6679  -109.6840   -99.6179 H6            1 RES     
    4473 H6         157.1643  -110.2104  -101.2651 H6            1 RES     
    4474 H6         159.0878  -108.9731  -102.2672 H6            1 RES     
    4475 H6         159.5854  -110.2389  -101.0882 H6            1 RES     
    4476 H6         159.4904  -107.2082  -100.5048 H6            1 RES     
    4477 H6         159.9315  -108.5089   -99.3235 H6            1 RES     
    4478 H6         160.9480  -108.2163  -100.7846 H6            1 RES     
    4479 H6         152.9045  -103.5849   -98.0910 H6            1 RES     
    4480 H6         153.2556  -102.4746   -96.9148 H6            1 RES     
    4481 H6         150.7732  -103.1379   -97.6764 H6            1 RES     
    4482 H6         150.8867  -104.4295   -96.4417 H6            1 RES     
    4483 H6         151.2483  -101.3299   -96.1079 H6            1 RES     
    4484 H6         151.3577  -102.5021   -94.7767 H6            1 RES     
    4485 H6         149.0681  -103.1975   -94.9588 H6            1 RES     
    4486 H6         149.3876  -101.4696   -94.5492 H6            1 RES     
    4487 H6         148.8573  -100.6926   -96.7449 H6            1 RES     
    4488 H6         148.4025  -102.3603   -97.2835 H6            1 RES     
    4489 H6         146.7236  -102.5258   -95.4530 H6            1 RES     
    4490 H6         147.1879  -100.9189   -94.7984 H6            1 RES     
    4491 H6         145.0731  -100.8646   -96.0452 H6            1 RES     
    4492 H6         145.9085  -101.3827   -97.5578 H6            1 RES     
    4493 H6         147.2896   -99.2508   -97.4602 H6            1 RES     
    4494 H6         145.5284   -98.8968   -97.4372 H6            1 RES     
    4495 H6         146.4743   -98.8136   -95.9057 H6            1 RES     
    4496 C0         166.6122  -104.2603   -90.2361 C0            1 RES     
    4497 C1         165.1153  -104.4312   -89.8959 C1            1 RES     
    4498 C1         164.9213  -105.1679   -88.7712 C1            1 RES     
    4499 S2         163.3079  -105.4501   -88.4254 S2            1 RES     
    4500 C1         162.7954  -104.6180   -89.8167 C1            1 RES     
    4501 C1         163.8976  -104.1357   -90.5310 C1            1 RES     
    4502 C1         166.1769  -105.5810   -88.2757 C1            1 RES     
    4503 C1         167.1535  -105.1605   -89.1244 C1            1 RES     
    4504 C1         168.4050  -105.6537   -88.7756 C1            1 RES     
    4505 C1         168.3226  -106.4308   -87.6079 C1            1 RES     
    4506 S2         166.7312  -106.5244   -87.0229 S2            1 RES     
    4507 H3         163.7824  -103.6480   -91.4804 H3            1 RES     
    4508 H3         169.3157  -105.4675   -89.3323 H3            1 RES     
    4509 N4         170.9025  -107.6145   -85.1598 N4            1 RES     
    4510 C1         169.9145  -106.8646   -85.7304 C1            1 RES     
    4511 C1         169.4092  -107.1913   -87.0007 C1            1 RES     
    4512 C1         169.9296  -108.3135   -87.6476 C1            1 RES     
    4513 N4         169.4912  -108.7708   -88.8485 N4            1 RES     
    4514 S2         170.4117  -110.1264   -89.0648 S2            1 RES     
    4515 N4         171.3592  -110.1810   -87.7092 N4            1 RES     
    4516 C1         170.9413  -109.0872   -87.0254 C1            1 RES     
    4517 C1         171.4289  -108.7093   -85.7771 C1            1 RES     
    4518 H5         169.5248  -106.0022   -85.1964 H5            1 RES     
    4519 C0         167.2812  -102.8471   -90.1006 C0            1 RES     
    4520 C0         167.6540  -102.0147   -88.8161 C0            1 RES     
    4521 C0         168.1734  -100.6369   -89.3584 C0            1 RES     
    4522 C0         168.6840   -99.6316   -88.3187 C0            1 RES     
    4523 C0         169.1212   -98.2942   -88.9613 C0            1 RES     
    4524 C0         170.3003   -98.3792   -89.9555 C0            1 RES     
    4525 C0         171.5752   -99.0331   -89.3941 C0            1 RES     
    4526 C0         172.1124   -98.3260   -88.1371 C0            1 RES     
    4527 C0         173.3518   -99.0135   -87.5467 C0            1 RES     
    4528 C0         174.5870   -98.9223   -88.4586 C0            1 RES     
    4529 C0         175.8491   -99.5120   -87.8093 C0            1 RES     
    4530 C0         175.7577  -101.0205   -87.5759 C0            1 RES     
    4531 C0         166.5975  -101.8366   -87.6771 C0            1 RES     
    4532 C0         165.2887  -101.0400   -87.9690 C0            1 RES     
    4533 C0         164.0856  -101.9547   -87.7202 C0            1 RES     
    4534 C0         162.7247  -101.5078   -88.2466 C0            1 RES     
    4535 C0         161.9802  -100.4777   -87.4098 C0            1 RES     
    4536 C0         160.6229  -100.2094   -88.0932 C0            1 RES     
    4537 C0         159.6680   -99.3364   -87.2758 C0            1 RES     
    4538 C0         159.1671  -100.0462   -86.0162 C0            1 RES     
    4539 H6         166.6886  -102.1814   -90.6746 H6            1 RES     
    4540 H6         168.2585  -102.9569   -90.6226 H6            1 RES     
    4541 H6         168.5032  -102.5448   -88.3298 H6            1 RES     
    4542 H6         167.3589  -100.1358   -89.9258 H6            1 RES     
    4543 H6         169.0003  -100.8437   -90.0711 H6            1 RES     
    4544 H6         169.5159  -100.0759   -87.7353 H6            1 RES     
    4545 H6         167.8617   -99.3816   -87.6183 H6            1 RES     
    4546 H6         169.3902   -97.5914   -88.1458 H6            1 RES     
    4547 H6         168.2549   -97.8421   -89.4932 H6            1 RES     
    4548 H6         170.5419   -97.3466   -90.2927 H6            1 RES     
    4549 H6         169.9888   -98.9470   -90.8581 H6            1 RES     
    4550 H6         171.3669  -100.0980   -89.1579 H6            1 RES     
    4551 H6         172.3399   -99.0082   -90.1980 H6            1 RES     
    4552 H6         171.3346   -98.3600   -87.3472 H6            1 RES     
    4553 H6         172.3375   -97.2601   -88.3604 H6            1 RES     
    4554 H6         173.5919   -98.5054   -86.5873 H6            1 RES     
    4555 H6         173.0977  -100.0716   -87.3260 H6            1 RES     
    4556 H6         174.4073   -99.4385   -89.4244 H6            1 RES     
    4557 H6         174.7842   -97.8480   -88.6664 H6            1 RES     
    4558 H6         176.0530   -98.9969   -86.8452 H6            1 RES     
    4559 H6         176.7076   -99.3238   -88.4895 H6            1 RES     
    4560 H6         174.9491  -101.2708   -86.8599 H6            1 RES     
    4561 H6         175.5749  -101.5463   -88.5371 H6            1 RES     
    4562 H6         176.7153  -101.3847   -87.1484 H6            1 RES     
    4563 H6         167.1009  -101.3243   -86.8295 H6            1 RES     
    4564 H6         166.3731  -102.8383   -87.2521 H6            1 RES     
    4565 H6         165.2023  -100.1606   -87.2921 H6            1 RES     
    4566 H6         165.2919  -100.6718   -89.0150 H6            1 RES     
    4567 H6         164.0233  -102.2914   -86.6640 H6            1 RES     
    4568 H6         164.3036  -102.8139   -88.3181 H6            1 RES     
    4569 H6         162.8346  -101.1696   -89.2799 H6            1 RES     
    4570 H6         162.0825  -102.4176   -88.2663 H6            1 RES     
    4571 H6         161.8350  -100.9177   -86.4005 H6            1 RES     
    4572 H6         162.5585   -99.5341   -87.3180 H6            1 RES     
    4573 H6         160.8221   -99.7085   -89.0678 H6            1 RES     
    4574 H6         160.0997  -101.1685   -88.3100 H6            1 RES     
    4575 H6         158.7800   -99.1216   -87.9102 H6            1 RES     
    4576 H6         160.1547   -98.3732   -87.0146 H6            1 RES     
    4577 H6         159.9960  -100.2589   -85.3126 H6            1 RES     
    4578 H6         158.4283   -99.4025   -85.4973 H6            1 RES     
    4579 H6         158.6680  -101.0028   -86.2892 H6            1 RES     
    4580 C0         166.7756  -104.8609   -91.6880 C0            1 RES     
    4581 C0         167.1237  -104.0294   -93.0047 C0            1 RES     
    4582 C0         166.6463  -104.8992   -94.2162 C0            1 RES     
    4583 C0         167.1169  -104.4226   -95.6052 C0            1 RES     
    4584 C0         166.6053  -105.2922   -96.7672 C0            1 RES     
    4585 C0         167.0274  -106.7719   -96.7310 C0            1 RES     
    4586 C0         168.5405  -107.0171   -96.6093 C0            1 RES     
    4587 C0         169.3591  -106.3664   -97.7383 C0            1 RES     
    4588 C0         170.8695  -106.6165   -97.5993 C0            1 RES     
    4589 C0         171.2512  -108.0959   -97.7856 C0            1 RES     
    4590 C0         172.7698  -108.3304   -97.7718 C0            1 RES     
    4591 C0         173.4155  -108.0230   -96.4206 C0            1 RES     
    4592 C0         166.7911  -102.4953   -93.2347 C0            1 RES     
    4593 C0         165.3306  -101.9830   -93.3846 C0            1 RES     
    4594 C0         164.8454  -101.2224   -92.1374 C0            1 RES     
    4595 C0         163.4065  -100.7334   -92.1548 C0            1 RES     
    4596 C0         163.0901   -99.5501   -93.0586 C0            1 RES     
    4597 C0         161.6319   -99.1386   -92.7701 C0            1 RES     
    4598 C0         161.1810   -97.8605   -93.4796 C0            1 RES     
    4599 C0         161.9011   -96.6185   -92.9523 C0            1 RES     
    4600 H6         165.8867  -105.5010   -91.8958 H6            1 RES     
    4601 H6         167.5741  -105.6353   -91.6363 H6            1 RES     
    4602 H6         168.2380  -104.0210   -93.0227 H6            1 RES     
    4603 H6         165.5358  -104.9443   -94.2155 H6            1 RES     
    4604 H6         167.0301  -105.9311   -94.0648 H6            1 RES     
    4605 H6         168.2259  -104.3747   -95.6207 H6            1 RES     
    4606 H6         166.7187  -103.4121   -95.8206 H6            1 RES     
    4607 H6         166.9672  -104.8377   -97.7141 H6            1 RES     
    4608 H6         165.4942  -105.2490   -96.7946 H6            1 RES     
    4609 H6         166.6528  -107.2553   -97.6597 H6            1 RES     
    4610 H6         166.5269  -107.2750   -95.8762 H6            1 RES     
    4611 H6         168.9011  -106.6362   -95.6299 H6            1 RES     
    4612 H6         168.6865  -108.1165   -96.6195 H6            1 RES     
    4613 H6         169.2123  -105.2668   -97.7003 H6            1 RES     
    4614 H6         169.0075  -106.7302   -98.7280 H6            1 RES     
    4615 H6         171.3824  -106.0245   -98.3883 H6            1 RES     
    4616 H6         171.2052  -106.2412   -96.6093 H6            1 RES     
    4617 H6         170.7881  -108.7286   -97.0005 H6            1 RES     
    4618 H6         170.8682  -108.4292   -98.7748 H6            1 RES     
    4619 H6         173.2527  -107.7186   -98.5645 H6            1 RES     
    4620 H6         172.9538  -109.4020   -98.0017 H6            1 RES     
    4621 H6         173.3116  -106.9508   -96.1583 H6            1 RES     
    4622 H6         172.9536  -108.6445   -95.6241 H6            1 RES     
    4623 H6         174.4993  -108.2590   -96.4704 H6            1 RES     
    4624 H6         167.2878  -102.2426   -94.1894 H6            1 RES     
    4625 H6         167.3858  -101.8188   -92.5925 H6            1 RES     
    4626 H6         165.3216  -101.2190   -94.1930 H6            1 RES     
    4627 H6         164.6522  -102.8033   -93.6951 H6            1 RES     
    4628 H6         165.5307  -100.3736   -91.9134 H6            1 RES     
    4629 H6         164.8464  -101.8865   -91.2804 H6            1 RES     
    4630 H6         162.7199  -101.5855   -92.3509 H6            1 RES     
    4631 H6         163.2271  -100.3515   -91.1363 H6            1 RES     
    4632 H6         163.7875   -98.7268   -92.7953 H6            1 RES     
    4633 H6         163.2232   -99.8147   -94.1282 H6            1 RES     
    4634 H6         160.9696   -99.9755   -93.0834 H6            1 RES     
    4635 H6         161.4832   -98.9838   -91.6765 H6            1 RES     
    4636 H6         160.0965   -97.7310   -93.2696 H6            1 RES     
    4637 H6         161.3210   -97.9616   -94.5741 H6            1 RES     
    4638 H6         162.9880   -96.6597   -93.1641 H6            1 RES     
    4639 H6         161.4851   -95.7166   -93.4463 H6            1 RES     
    4640 H6         161.7471   -96.5208   -91.8552 H6            1 RES     
    4641 C0         176.2933  -110.5639   -84.2036 C0            1 RES     
    4642 C1         174.7856  -110.2808   -84.3837 C1            1 RES     
    4643 C1         174.0080  -111.2350   -83.8094 C1            1 RES     
    4644 S2         172.3694  -111.0072   -84.0655 S2            1 RES     
    4645 C1         172.6421  -109.6196   -85.0094 C1            1 RES     
    4646 C1         174.0132  -109.3598   -85.1109 C1            1 RES     
    4647 C1         174.8429  -112.2232   -83.2444 C1            1 RES     
    4648 C1         176.1409  -111.9242   -83.5214 C1            1 RES     
    4649 C1         177.0120  -112.9294   -83.1189 C1            1 RES     
    4650 C1         176.3081  -113.9742   -82.4968 C1            1 RES     
    4651 S2         174.6372  -113.6744   -82.4581 S2            1 RES     
    4652 H3         174.3910  -108.5681   -85.7296 H3            1 RES     
    4653 H3         178.0847  -112.9097   -83.2702 H3            1 RES     
    4654 N4         177.3884  -116.7884   -80.2688 N4            1 RES     
    4655 C1         176.8964  -115.5813   -80.6751 C1            1 RES     
    4656 C1         176.8714  -115.2392   -82.0382 C1            1 RES     
    4657 C1         177.3412  -116.1756   -82.9609 C1            1 RES     
    4658 N4         177.3197  -115.9948   -84.3063 N4            1 RES     
    4659 S2         177.9259  -117.4284   -84.8624 S2            1 RES     
    4660 N4         178.2278  -118.2913   -83.4831 N4            1 RES     
    4661 C1         177.8288  -117.4298   -82.5151 C1            1 RES     
    4662 C1         177.8579  -117.7136   -81.1522 C1            1 RES     
    4663 H5         176.5301  -114.8783   -79.9321 H5            1 RES     
    4664 C0         177.1504  -109.6351   -83.2734 C0            1 RES     
    4665 C0         177.1637  -109.4968   -81.7041 C0            1 RES     
    4666 C0         178.1454  -108.3093   -81.4067 C0            1 RES     
    4667 C0         178.4160  -107.9874   -79.9318 C0            1 RES     
    4668 C0         179.3548  -106.7701   -79.7597 C0            1 RES     
    4669 C0         180.7786  -106.9317   -80.3362 C0            1 RES     
    4670 C0         181.5516  -108.1578   -79.8191 C0            1 RES     
    4671 C0         181.6946  -108.1784   -78.2869 C0            1 RES     
    4672 C0         182.4171  -109.4305   -77.7695 C0            1 RES     
    4673 C0         183.8978  -109.4889   -78.1815 C0            1 RES     
    4674 C0         184.6390  -110.6853   -77.5637 C0            1 RES     
    4675 C0         184.1317  -112.0356   -78.0712 C0            1 RES     
    4676 C0         175.8131  -109.3496   -80.9299 C0            1 RES     
    4677 C0         174.9357  -108.0811   -81.1616 C0            1 RES     
    4678 C0         173.5614  -108.5164   -81.6791 C0            1 RES     
    4679 C0         172.6520  -107.4498   -82.2825 C0            1 RES     
    4680 C0         171.8873  -106.5765   -81.2986 C0            1 RES     
    4681 C0         171.0032  -105.6112   -82.1158 C0            1 RES     
    4682 C0         170.0234  -104.7899   -81.2746 C0            1 RES     
    4683 C0         168.9248  -105.6551   -80.6536 C0            1 RES     
    4684 H6         176.9941  -108.6445   -83.6169 H6            1 RES     
    4685 H6         178.2034  -109.9075   -83.5116 H6            1 RES     
    4686 H6         177.6135  -110.4339   -81.3066 H6            1 RES     
    4687 H6         177.7519  -107.3818   -81.8774 H6            1 RES     
    4688 H6         179.1174  -108.5445   -81.8908 H6            1 RES     
    4689 H6         178.8313  -108.8777   -79.4173 H6            1 RES     
    4690 H6         177.4625  -107.7124   -79.4374 H6            1 RES     
    4691 H6         179.4306  -106.5435   -78.6761 H6            1 RES     
    4692 H6         178.8902  -105.8782   -80.2358 H6            1 RES     
    4693 H6         181.3554  -106.0116   -80.0931 H6            1 RES     
    4694 H6         180.7289  -106.9960   -81.4442 H6            1 RES     
    4695 H6         181.0370  -109.0830   -80.1542 H6            1 RES     
    4696 H6         182.5552  -108.1384   -80.2924 H6            1 RES     
    4697 H6         180.6828  -108.1959   -77.8330 H6            1 RES     
    4698 H6         182.2193  -107.2629   -77.9359 H6            1 RES     
    4699 H6         182.3676  -109.4113   -76.6589 H6            1 RES     
    4700 H6         181.8693  -110.3277   -78.1267 H6            1 RES     
    4701 H6         184.0020  -109.5351   -79.2853 H6            1 RES     
    4702 H6         184.3934  -108.5612   -77.8208 H6            1 RES     
    4703 H6         184.5569  -110.6483   -76.4554 H6            1 RES     
    4704 H6         185.7141  -110.6019   -77.8331 H6            1 RES     
    4705 H6         183.0735  -112.2031   -77.7863 H6            1 RES     
    4706 H6         184.2292  -112.0904   -79.1763 H6            1 RES     
    4707 H6         184.7382  -112.8488   -77.6204 H6            1 RES     
    4708 H6         176.0434  -109.3846   -79.8436 H6            1 RES     
    4709 H6         175.2240  -110.2797   -81.0797 H6            1 RES     
    4710 H6         174.7878  -107.5238   -80.2094 H6            1 RES     
    4711 H6         175.4305  -107.4025   -81.8858 H6            1 RES     
    4712 H6         173.0167  -109.1497   -80.9475 H6            1 RES     
    4713 H6         173.8002  -109.1318   -82.5202 H6            1 RES     
    4714 H6         173.2305  -106.8407   -82.9814 H6            1 RES     
    4715 H6         171.8848  -107.9937   -82.8794 H6            1 RES     
    4716 H6         171.2641  -107.2525   -80.6755 H6            1 RES     
    4717 H6         172.5766  -106.0050   -80.6418 H6            1 RES     
    4718 H6         171.6744  -104.9146   -82.6676 H6            1 RES     
    4719 H6         170.4087  -106.1731   -82.8718 H6            1 RES     
    4720 H6         169.5272  -104.0597   -81.9512 H6            1 RES     
    4721 H6         170.5688  -104.2264   -80.4886 H6            1 RES     
    4722 H6         169.3415  -106.3858   -79.9326 H6            1 RES     
    4723 H6         168.2042  -105.0077   -80.1139 H6            1 RES     
    4724 H6         168.3744  -106.2042   -81.4500 H6            1 RES     
    4725 C0         176.8758  -110.6406   -85.6701 C0            1 RES     
    4726 C0         177.8874  -109.5946   -86.3248 C0            1 RES     
    4727 C0         177.7439  -109.7522   -87.8762 C0            1 RES     
    4728 C0         178.8146  -109.0326   -88.7210 C0            1 RES     
    4729 C0         178.6211  -109.1947   -90.2391 C0            1 RES     
    4730 C0         178.6559  -110.6400   -90.7670 C0            1 RES     
    4731 C0         179.9047  -111.4483   -90.3772 C0            1 RES     
    4732 C0         181.2226  -110.7957   -90.8304 C0            1 RES     
    4733 C0         182.4610  -111.6131   -90.4288 C0            1 RES     
    4734 C0         182.5471  -112.9666   -91.1567 C0            1 RES     
    4735 C0         183.8454  -113.7302   -90.8526 C0            1 RES     
    4736 C0         183.9597  -114.1684   -89.3925 C0            1 RES     
    4737 C0         178.0206  -108.0680   -85.9141 C0            1 RES     
    4738 C0         176.8891  -107.0386   -86.1932 C0            1 RES     
    4739 C0         176.1351  -106.6349   -84.9134 C0            1 RES     
    4740 C0         174.9658  -105.6794   -85.0845 C0            1 RES     
    4741 C0         175.3001  -104.2288   -85.4024 C0            1 RES     
    4742 C0         173.9763  -103.4388   -85.3530 C0            1 RES     
    4743 C0         174.1353  -101.9242   -85.4978 C0            1 RES     
    4744 C0         174.8465  -101.2975   -84.2975 C0            1 RES     
    4745 H6         176.0220  -110.7961   -86.3700 H6            1 RES     
    4746 H6         177.3968  -111.6200   -85.7669 H6            1 RES     
    4747 H6         178.8911  -109.9893   -86.0440 H6            1 RES     
    4748 H6         176.7422  -109.3845   -88.1873 H6            1 RES     
    4749 H6         177.7985  -110.8365   -88.1133 H6            1 RES     
    4750 H6         179.8214  -109.3922   -88.4216 H6            1 RES     
    4751 H6         178.7675  -107.9394   -88.5519 H6            1 RES     
    4752 H6         179.4165  -108.6072   -90.7456 H6            1 RES     
    4753 H6         177.6496  -108.7408   -90.5345 H6            1 RES     
    4754 H6         178.5788  -110.5993   -91.8755 H6            1 RES     
    4755 H6         177.7623  -111.1868   -90.3973 H6            1 RES     
    4756 H6         179.9267  -111.5899   -89.2755 H6            1 RES     
    4757 H6         179.7954  -112.4479   -90.8450 H6            1 RES     
    4758 H6         181.3202  -109.8052   -90.3390 H6            1 RES     
    4759 H6         181.2165  -110.6389   -91.9308 H6            1 RES     
    4760 H6         183.3596  -111.0168   -90.6989 H6            1 RES     
    4761 H6         182.4554  -111.7542   -89.3271 H6            1 RES     
    4762 H6         181.6855  -113.6149   -90.8953 H6            1 RES     
    4763 H6         182.5195  -112.7721   -92.2512 H6            1 RES     
    4764 H6         184.7231  -113.1046   -91.1248 H6            1 RES     
    4765 H6         183.8625  -114.6438   -91.4851 H6            1 RES     
    4766 H6         184.0016  -113.2949   -88.7111 H6            1 RES     
    4767 H6         183.0972  -114.8115   -89.1160 H6            1 RES     
    4768 H6         184.8945  -114.7521   -89.2574 H6            1 RES     
    4769 H6         178.8946  -107.7016   -86.4832 H6            1 RES     
    4770 H6         178.4494  -107.9236   -84.9046 H6            1 RES     
    4771 H6         177.3675  -106.0958   -86.5390 H6            1 RES     
    4772 H6         176.2236  -107.3913   -87.0070 H6            1 RES     
    4773 H6         176.8471  -106.2303   -84.1587 H6            1 RES     
    4774 H6         175.6526  -107.5054   -84.4831 H6            1 RES     
    4775 H6         174.2410  -106.0961   -85.8173 H6            1 RES     
    4776 H6         174.4906  -105.6359   -84.0906 H6            1 RES     
    4777 H6         176.0017  -103.8641   -84.6226 H6            1 RES     
    4778 H6         175.7800  -104.1363   -86.3990 H6            1 RES     
    4779 H6         173.3226  -103.8108   -86.1724 H6            1 RES     
    4780 H6         173.4488  -103.6287   -84.3898 H6            1 RES     
    4781 H6         173.1135  -101.4877   -85.5447 H6            1 RES     
    4782 H6         174.6674  -101.6845   -86.4396 H6            1 RES     
    4783 H6         175.8907  -101.6580   -84.2115 H6            1 RES     
    4784 H6         174.8688  -100.1952   -84.4197 H6            1 RES     
    4785 H6         174.3001  -101.5360   -83.3586 H6            1 RES     
    4786 C0         181.1723  -121.6418   -79.3740 C0            1 RES     
    4787 C1         179.9597  -120.7826   -79.7949 C1            1 RES     
    4788 C1         178.8287  -121.5206   -79.9411 C1            1 RES     
    4789 S2         177.5168  -120.6350   -80.4862 S2            1 RES     
    4790 C1         178.4381  -119.2098   -80.5914 C1            1 RES     
    4791 C1         179.7595  -119.4526   -80.2007 C1            1 RES     
    4792 C1         179.1334  -122.8755   -79.6876 C1            1 RES     
    4793 C1         180.4671  -122.9970   -79.4478 C1            1 RES     
    4794 C1         180.8642  -124.3236   -79.3310 C1            1 RES     
    4795 C1         179.7602  -125.1834   -79.4581 C1            1 RES     
    4796 S2         178.3197  -124.3256   -79.7278 S2            1 RES     
    4797 H3         180.5150  -118.6932   -80.2708 H3            1 RES     
    4798 H3         181.8855  -124.6472   -79.1697 H3            1 RES     
    4799 N4         179.2268  -128.7805   -78.5489 N4            1 RES     
    4800 C1         179.2145  -127.4171   -78.4782 C1            1 RES     
    4801 C1         179.8028  -126.6410   -79.4918 C1            1 RES     
    4802 C1         180.3768  -127.3031   -80.5786 C1            1 RES     
    4803 N4         180.9256  -126.6738   -81.6492 N4            1 RES     
    4804 S2         181.3674  -127.9420   -82.6128 S2            1 RES     
    4805 N4         180.9045  -129.2749   -81.7483 N4            1 RES     
    4806 C1         180.3593  -128.7192   -80.6381 C1            1 RES     
    4807 C1         179.7877  -129.4463   -79.5972 C1            1 RES     
    4808 H5         178.7517  -126.9324   -77.6229 H5            1 RES     
    4809 C0         181.7782  -121.4751   -77.9360 C0            1 RES     
    4810 C0         181.2049  -121.9031   -76.5324 C0            1 RES     
    4811 C0         182.2278  -121.3398   -75.4841 C0            1 RES     
    4812 C0         181.9619  -121.6708   -74.0103 C0            1 RES     
    4813 C0         183.0021  -121.0226   -73.0666 C0            1 RES     
    4814 C0         184.4636  -121.4846   -73.2576 C0            1 RES     
    4815 C0         184.6791  -123.0057   -73.1687 C0            1 RES     
    4816 C0         184.2010  -123.6057   -71.8345 C0            1 RES     
    4817 C0         184.3656  -125.1309   -71.7705 C0            1 RES     
    4818 C0         185.8362  -125.5814   -71.7596 C0            1 RES     
    4819 C0         185.9904  -127.1000   -71.5798 C0            1 RES     
    4820 C0         185.4375  -127.9051   -72.7564 C0            1 RES     
    4821 C0         179.7280  -121.5488   -76.1602 C0            1 RES     
    4822 C0         179.3168  -120.0515   -76.0140 C0            1 RES     
    4823 C0         178.1964  -119.7451   -77.0126 C0            1 RES     
    4824 C0         177.8577  -118.2819   -77.2829 C0            1 RES     
    4825 C0         176.9825  -117.5876   -76.2498 C0            1 RES     
    4826 C0         176.7277  -116.1472   -76.7416 C0            1 RES     
    4827 C0         175.7050  -115.3696   -75.9101 C0            1 RES     
    4828 C0         174.2888  -115.9293   -76.0604 C0            1 RES     
    4829 H6         181.9929  -120.4433   -77.8216 H6            1 RES     
    4830 H6         182.7513  -122.0138   -77.9860 H6            1 RES     
    4831 H6         181.2429  -123.0148   -76.4996 H6            1 RES     
    4832 H6         182.2666  -120.2317   -75.5689 H6            1 RES     
    4833 H6         183.2333  -121.7317   -75.7481 H6            1 RES     
    4834 H6         181.9335  -122.7699   -73.8656 H6            1 RES     
    4835 H6         180.9776  -121.2549   -73.7147 H6            1 RES     
    4836 H6         182.6949  -121.2293   -72.0206 H6            1 RES     
    4837 H6         182.9718  -119.9174   -73.1908 H6            1 RES     
    4838 H6         185.0870  -120.9851   -72.4828 H6            1 RES     
    4839 H6         184.8398  -121.1388   -74.2441 H6            1 RES     
    4840 H6         184.1463  -123.5006   -74.0079 H6            1 RES     
    4841 H6         185.7651  -123.1930   -73.3001 H6            1 RES     
    4842 H6         183.1158  -123.4070   -71.7211 H6            1 RES     
    4843 H6         184.7346  -123.1284   -70.9836 H6            1 RES     
    4844 H6         183.8899  -125.4801   -70.8282 H6            1 RES     
    4845 H6         183.8179  -125.5817   -72.6246 H6            1 RES     
    4846 H6         186.3520  -125.2778   -72.6940 H6            1 RES     
    4847 H6         186.3426  -125.0863   -70.9025 H6            1 RES     
    4848 H6         185.4905  -127.4212   -70.6400 H6            1 RES     
    4849 H6         187.0743  -127.3287   -71.4897 H6            1 RES     
    4850 H6         184.3439  -127.7606   -72.8670 H6            1 RES     
    4851 H6         185.9459  -127.6061   -73.6976 H6            1 RES     
    4852 H6         185.6218  -128.9857   -72.5810 H6            1 RES     
    4853 H6         179.4997  -122.0390   -75.1897 H6            1 RES     
    4854 H6         179.0548  -122.0847   -76.8632 H6            1 RES     
    4855 H6         178.9346  -119.8451   -74.9891 H6            1 RES     
    4856 H6         180.1930  -119.3962   -76.1945 H6            1 RES     
    4857 H6         177.2829  -120.3456   -76.8184 H6            1 RES     
    4858 H6         178.6034  -120.0734   -77.9453 H6            1 RES     
    4859 H6         178.7834  -117.7260   -77.4513 H6            1 RES     
    4860 H6         177.2866  -118.2643   -78.2390 H6            1 RES     
    4861 H6         176.0319  -118.1586   -76.1880 H6            1 RES     
    4862 H6         177.4667  -117.5735   -75.2506 H6            1 RES     
    4863 H6         177.6978  -115.6006   -76.7207 H6            1 RES     
    4864 H6         176.3691  -116.1534   -77.7961 H6            1 RES     
    4865 H6         175.6892  -114.3231   -76.2865 H6            1 RES     
    4866 H6         176.0082  -115.3545   -74.8421 H6            1 RES     
    4867 H6         174.2160  -116.9624   -75.6671 H6            1 RES     
    4868 H6         173.5772  -115.2927   -75.4965 H6            1 RES     
    4869 H6         173.9883  -115.9266   -77.1320 H6            1 RES     
    4870 C0         182.2507  -121.4144   -80.5058 C0            1 RES     
    4871 C0         183.6424  -120.6550   -80.3252 C0            1 RES     
    4872 C0         184.0881  -120.2022   -81.7565 C0            1 RES     
    4873 C0         185.5349  -119.6808   -81.8701 C0            1 RES     
    4874 C0         185.9219  -119.2250   -83.2881 C0            1 RES     
    4875 C0         185.8398  -120.3038   -84.3828 C0            1 RES     
    4876 C0         186.6226  -121.5943   -84.0886 C0            1 RES     
    4877 C0         188.1215  -121.3567   -83.8339 C0            1 RES     
    4878 C0         188.8884  -122.6554   -83.5365 C0            1 RES     
    4879 C0         188.9510  -123.6044   -84.7467 C0            1 RES     
    4880 C0         189.8216  -124.8448   -84.4924 C0            1 RES     
    4881 C0         189.2536  -125.7701   -83.4161 C0            1 RES     
    4882 C0         183.9384  -119.5271   -79.2495 C0            1 RES     
    4883 C0         183.2658  -118.1268   -79.3185 C0            1 RES     
    4884 C0         182.1800  -117.9444   -78.2429 C0            1 RES     
    4885 C0         181.4149  -116.6314   -78.2632 C0            1 RES     
    4886 C0         182.1596  -115.3909   -77.7902 C0            1 RES     
    4887 C0         181.1334  -114.2406   -77.7379 C0            1 RES     
    4888 C0         181.6677  -112.9404   -77.1344 C0            1 RES     
    4889 C0         181.9705  -113.0746   -75.6413 C0            1 RES     
    4890 H6         181.7287  -120.9939   -81.3966 H6            1 RES     
    4891 H6         182.5368  -122.4179   -80.8947 H6            1 RES     
    4892 H6         184.3408  -121.4608   -80.0011 H6            1 RES     
    4893 H6         183.3974  -119.4101   -82.1181 H6            1 RES     
    4894 H6         183.9897  -121.0769   -82.4348 H6            1 RES     
    4895 H6         186.2365  -120.4638   -81.5135 H6            1 RES     
    4896 H6         185.6687  -118.7776   -81.2437 H6            1 RES     
    4897 H6         186.9608  -118.8338   -83.2454 H6            1 RES     
    4898 H6         185.2710  -118.3749   -83.5894 H6            1 RES     
    4899 H6         186.2150  -119.8571   -85.3295 H6            1 RES     
    4900 H6         184.7759  -120.5766   -84.5495 H6            1 RES     
    4901 H6         186.1786  -122.1056   -83.2079 H6            1 RES     
    4902 H6         186.4871  -122.2560   -84.9683 H6            1 RES     
    4903 H6         188.2354  -120.7067   -82.9413 H6            1 RES     
    4904 H6         188.5826  -120.8386   -84.7025 H6            1 RES     
    4905 H6         189.9288  -122.3761   -83.2612 H6            1 RES     
    4906 H6         188.4199  -123.1562   -82.6628 H6            1 RES     
    4907 H6         187.9357  -123.9391   -85.0432 H6            1 RES     
    4908 H6         189.3989  -123.0479   -85.5988 H6            1 RES     
    4909 H6         190.8505  -124.5318   -84.2111 H6            1 RES     
    4910 H6         189.8826  -125.4217   -85.4403 H6            1 RES     
    4911 H6         189.2172  -125.2665   -82.4291 H6            1 RES     
    4912 H6         188.2327  -126.1053   -83.6976 H6            1 RES     
    4913 H6         189.9058  -126.6635   -83.3198 H6            1 RES     
    4914 H6         185.0231  -119.3341   -79.3395 H6            1 RES     
    4915 H6         183.9571  -119.9085   -78.2112 H6            1 RES     
    4916 H6         184.0375  -117.3681   -79.0612 H6            1 RES     
    4917 H6         182.9129  -117.9064   -80.3463 H6            1 RES     
    4918 H6         182.6091  -118.1166   -77.2297 H6            1 RES     
    4919 H6         181.3876  -118.6684   -78.3965 H6            1 RES     
    4920 H6         180.9631  -116.4725   -79.2664 H6            1 RES     
    4921 H6         180.6104  -116.7634   -77.5211 H6            1 RES     
    4922 H6         182.5607  -115.6025   -76.7765 H6            1 RES     
    4923 H6         182.9995  -115.1422   -78.4718 H6            1 RES     
    4924 H6         180.7889  -114.0391   -78.7762 H6            1 RES     
    4925 H6         180.2425  -114.5444   -77.1413 H6            1 RES     
    4926 H6         180.8706  -112.1727   -77.2450 H6            1 RES     
    4927 H6         182.5654  -112.6025   -77.6892 H6            1 RES     
    4928 H6         182.7891  -113.7983   -75.4571 H6            1 RES     
    4929 H6         182.2825  -112.0882   -75.2409 H6            1 RES     
    4930 H6         181.0615  -113.4050   -75.0922 H6            1 RES     
    4931 C0         181.1784  -134.6688   -78.9893 C0            1 RES     
    4932 C1         180.4515  -133.3368   -79.2775 C1            1 RES     
    4933 C1         179.3356  -133.5094   -80.0326 C1            1 RES     
    4934 S2         178.5746  -132.0753   -80.4407 S2            1 RES     
    4935 C1         179.7541  -131.1453   -79.6439 C1            1 RES     
    4936 C1         180.7266  -131.9742   -79.0741 C1            1 RES     
    4937 C1         179.2080  -134.8791   -80.3496 C1            1 RES     
    4938 C1         180.2776  -135.5555   -79.8503 C1            1 RES     
    4939 C1         180.2923  -136.8874   -80.2467 C1            1 RES     
    4940 C1         179.1662  -137.1817   -81.0337 C1            1 RES     
    4941 S2         178.1761  -135.8197   -81.2534 S2            1 RES     
    4942 H3         181.5968  -131.5707   -78.5921 H3            1 RES     
    4943 H3         181.0691  -137.5969   -79.9877 H3            1 RES     
    4944 N4         177.5363  -140.4081   -82.0261 N4            1 RES     
    4945 C1         177.7996  -139.2502   -81.3522 C1            1 RES     
    4946 C1         178.8945  -138.4449   -81.7107 C1            1 RES     
    4947 C1         179.6866  -138.8513   -82.7860 C1            1 RES     
    4948 N4         180.7361  -138.1386   -83.2698 N4            1 RES     
    4949 S2         181.2276  -139.0628   -84.5489 S2            1 RES     
    4950 N4         180.1798  -140.3436   -84.5366 N4            1 RES     
    4951 C1         179.3806  -140.0477   -83.4819 C1            1 RES     
    4952 C1         178.3008  -140.8262   -83.0737 C1            1 RES     
    4953 H5         177.1582  -138.9577   -80.5253 H5            1 RES     
    4954 C0         181.1920  -135.2439   -77.5292 C0            1 RES     
    4955 C0         180.0347  -135.8889   -76.6768 C0            1 RES     
    4956 C0         180.6613  -136.1395   -75.2601 C0            1 RES     
    4957 C0         179.7723  -136.8376   -74.2235 C0            1 RES     
    4958 C0         180.4743  -136.9851   -72.8530 C0            1 RES     
    4959 C0         181.7516  -137.8536   -72.8414 C0            1 RES     
    4960 C0         181.5721  -139.2773   -73.3973 C0            1 RES     
    4961 C0         180.4888  -140.0817   -72.6569 C0            1 RES     
    4962 C0         180.2727  -141.4817   -73.2492 C0            1 RES     
    4963 C0         181.4815  -142.4133   -73.0579 C0            1 RES     
    4964 C0         181.2122  -143.8439   -73.5513 C0            1 RES     
    4965 C0         181.0018  -143.9300   -75.0634 C0            1 RES     
    4966 C0         178.6487  -135.1705   -76.5869 C0            1 RES     
    4967 C0         178.5559  -133.7769   -75.8927 C0            1 RES     
    4968 C0         178.0155  -132.7566   -76.8991 C0            1 RES     
    4969 C0         178.1434  -131.2750   -76.5565 C0            1 RES     
    4970 C0         177.1105  -130.7117   -75.5914 C0            1 RES     
    4971 C0         177.3951  -129.2041   -75.4257 C0            1 RES     
    4972 C0         176.3281  -128.4452   -74.6335 C0            1 RES     
    4973 C0         174.9988  -128.3579   -75.3864 C0            1 RES     
    4974 H6         181.5674  -134.4709   -76.9086 H6            1 RES     
    4975 H6         181.9610  -136.0486   -77.5602 H6            1 RES     
    4976 H6         179.8094  -136.8746   -77.1419 H6            1 RES     
    4977 H6         180.9748  -135.1672   -74.8209 H6            1 RES     
    4978 H6         181.5758  -136.7551   -75.3987 H6            1 RES     
    4979 H6         179.4467  -137.8267   -74.6049 H6            1 RES     
    4980 H6         178.8698  -136.2199   -74.0416 H6            1 RES     
    4981 H6         179.7438  -137.4128   -72.1356 H6            1 RES     
    4982 H6         180.7409  -135.9763   -72.4668 H6            1 RES     
    4983 H6         182.1148  -137.9184   -71.7914 H6            1 RES     
    4984 H6         182.5511  -137.3515   -73.4271 H6            1 RES     
    4985 H6         181.3160  -139.2194   -74.4762 H6            1 RES     
    4986 H6         182.5516  -139.7915   -73.3091 H6            1 RES     
    4987 H6         179.5195  -139.5517   -72.7551 H6            1 RES     
    4988 H6         180.7370  -140.1591   -71.5757 H6            1 RES     
    4989 H6         179.4010  -141.9349   -72.7288 H6            1 RES     
    4990 H6         180.0191  -141.3751   -74.3248 H6            1 RES     
    4991 H6         182.3759  -142.0170   -73.5817 H6            1 RES     
    4992 H6         181.7069  -142.4675   -71.9705 H6            1 RES     
    4993 H6         180.3259  -144.2631   -73.0267 H6            1 RES     
    4994 H6         182.0937  -144.4697   -73.2936 H6            1 RES     
    4995 H6         180.1009  -143.3663   -75.3793 H6            1 RES     
    4996 H6         181.8913  -143.5325   -75.5970 H6            1 RES     
    4997 H6         180.8581  -144.9916   -75.3544 H6            1 RES     
    4998 H6         177.9554  -135.8459   -76.0413 H6            1 RES     
    4999 H6         178.2048  -135.1437   -77.6051 H6            1 RES     
    5000 H6         177.8583  -133.8130   -75.0260 H6            1 RES     
    5001 H6         179.5541  -133.4695   -75.5202 H6            1 RES     
    5002 H6         176.9907  -133.0077   -77.2450 H6            1 RES     
    5003 H6         178.6720  -132.8668   -77.7359 H6            1 RES     
    5004 H6         179.1589  -131.0757   -76.2056 H6            1 RES     
    5005 H6         178.0125  -130.7200   -77.5132 H6            1 RES     
    5006 H6         176.1111  -130.8781   -76.0464 H6            1 RES     
    5007 H6         177.1538  -131.2225   -74.6063 H6            1 RES     
    5008 H6         178.3740  -129.0945   -74.9061 H6            1 RES     
    5009 H6         177.4874  -128.7135   -76.4214 H6            1 RES     
    5010 H6         176.6936  -127.4053   -74.4851 H6            1 RES     
    5011 H6         176.1831  -128.9125   -73.6368 H6            1 RES     
    5012 H6         174.5507  -129.3597   -75.5377 H6            1 RES     
    5013 H6         174.2834  -127.7422   -74.8044 H6            1 RES     
    5014 H6         175.1516  -127.8750   -76.3774 H6            1 RES     
    5015 C0         182.6356  -134.4761   -79.5681 C0            1 RES     
    5016 C0         183.9754  -134.3924   -78.7055 C0            1 RES     
    5017 C0         185.0352  -133.6697   -79.6037 C0            1 RES     
    5018 C0         186.4869  -133.7099   -79.0850 C0            1 RES     
    5019 C0         187.4898  -132.9677   -79.9859 C0            1 RES     
    5020 C0         187.6070  -133.4911   -81.4286 C0            1 RES     
    5021 C0         187.9045  -134.9944   -81.5564 C0            1 RES     
    5022 C0         189.1953  -135.4263   -80.8385 C0            1 RES     
    5023 C0         189.4755  -136.9320   -80.9714 C0            1 RES     
    5024 C0         189.7960  -137.3563   -82.4158 C0            1 RES     
    5025 C0         190.1985  -138.8347   -82.5318 C0            1 RES     
    5026 C0         189.0642  -139.7981   -82.1821 C0            1 RES     
    5027 C0         184.0674  -133.8984   -77.2007 C0            1 RES     
    5028 C0         183.8044  -132.4185   -76.8025 C0            1 RES     
    5029 C0         182.4534  -132.2351   -76.0880 C0            1 RES     
    5030 C0         182.0693  -130.8135   -75.7120 C0            1 RES     
    5031 C0         182.8233  -130.1782   -74.5523 C0            1 RES     
    5032 C0         182.1415  -128.8266   -74.2565 C0            1 RES     
    5033 C0         182.6698  -128.1079   -73.0137 C0            1 RES     
    5034 C0         182.3245  -128.8510   -71.7223 C0            1 RES     
    5035 H6         182.6123  -133.6136   -80.2742 H6            1 RES     
    5036 H6         182.8213  -135.3133   -80.2785 H6            1 RES     
    5037 H6         184.2932  -135.4564   -78.6106 H6            1 RES     
    5038 H6         184.7360  -132.6073   -79.7347 H6            1 RES     
    5039 H6         185.0197  -134.1547   -80.6034 H6            1 RES     
    5040 H6         186.7998  -134.7667   -78.9513 H6            1 RES     
    5041 H6         186.5607  -133.1953   -78.1075 H6            1 RES     
    5042 H6         188.4872  -133.0252   -79.5000 H6            1 RES     
    5043 H6         187.2153  -131.8908   -80.0289 H6            1 RES     
    5044 H6         188.4124  -132.9153   -81.9350 H6            1 RES     
    5045 H6         186.6622  -133.2793   -81.9732 H6            1 RES     
    5046 H6         187.0493  -135.5780   -81.1535 H6            1 RES     
    5047 H6         187.9821  -135.2122   -82.6411 H6            1 RES     
    5048 H6         189.0907  -135.2151   -79.7538 H6            1 RES     
    5049 H6         190.0625  -134.8474   -81.2235 H6            1 RES     
    5050 H6         190.3581  -137.1670   -80.3374 H6            1 RES     
    5051 H6         188.6035  -137.4950   -80.5761 H6            1 RES     
    5052 H6         188.9317  -137.1710   -83.0864 H6            1 RES     
    5053 H6         190.6535  -136.7450   -82.7729 H6            1 RES     
    5054 H6         191.0761  -139.0385   -81.8805 H6            1 RES     
    5055 H6         190.4972  -139.0276   -83.5848 H6            1 RES     
    5056 H6         188.7560  -139.6909   -81.1225 H6            1 RES     
    5057 H6         188.1890  -139.6162   -82.8415 H6            1 RES     
    5058 H6         189.4107  -140.8421   -82.3331 H6            1 RES     
    5059 H6         185.1139  -134.0979   -76.9056 H6            1 RES     
    5060 H6         183.5923  -134.5937   -76.4834 H6            1 RES     
    5061 H6         184.5604  -132.1348   -76.0375 H6            1 RES     
    5062 H6         183.9415  -131.7434   -77.6714 H6            1 RES     
    5063 H6         182.4008  -132.8914   -75.1898 H6            1 RES     
    5064 H6         181.6459  -132.5170   -76.7544 H6            1 RES     
    5065 H6         182.0948  -130.1638   -76.6138 H6            1 RES     
    5066 H6         181.0306  -130.8894   -75.3503 H6            1 RES     
    5067 H6         182.7368  -130.8585   -73.6788 H6            1 RES     
    5068 H6         183.8956  -130.0355   -74.8004 H6            1 RES     
    5069 H6         182.2860  -128.1674   -75.1407 H6            1 RES     
    5070 H6         181.0448  -128.9690   -74.1192 H6            1 RES     
    5071 H6         182.1717  -127.1145   -72.9698 H6            1 RES     
    5072 H6         183.7637  -127.9531   -73.0982 H6            1 RES     
    5073 H6         182.8227  -129.8398   -71.6780 H6            1 RES     
    5074 H6         182.6645  -128.2517   -70.8530 H6            1 RES     
    5075 H6         181.2244  -128.9933   -71.6423 H6            1 RES     
    5076 C0         178.1467  -146.0574   -84.5533 C0            1 RES     
    5077 C1         177.9060  -144.5407   -84.3871 C1            1 RES     
    5078 C1         177.1679  -144.0199   -85.4016 C1            1 RES     
    5079 S2         176.9664  -142.3612   -85.3002 S2            1 RES     
    5080 C1         177.9127  -142.2654   -83.8909 C1            1 RES     
    5081 C1         178.3737  -143.5348   -83.5251 C1            1 RES     
    5082 C1         176.8749  -145.0468   -86.3249 C1            1 RES     
    5083 C1         177.4840  -146.1957   -85.9247 C1            1 RES     
    5084 C1         177.3576  -147.2145   -86.8613 C1            1 RES     
    5085 C1         176.5958  -146.7841   -87.9607 C1            1 RES     
    5086 S2         176.0999  -145.1689   -87.7915 S2            1 RES     
    5087 H3         179.0508  -143.6717   -82.7034 H3            1 RES     
    5088 H3         177.7922  -148.2016   -86.7578 H3            1 RES     
    5089 N4         174.8154  -148.6309   -90.6938 N4            1 RES     
    5090 C1         175.0426  -147.9602   -89.5265 C1            1 RES     
    5091 C1         176.3391  -147.5417   -89.1805 C1            1 RES     
    5092 C1         177.3781  -147.8112   -90.0730 C1            1 RES     
    5093 N4         178.6627  -147.4126   -89.8877 N4            1 RES     
    5094 S2         179.3986  -147.9488   -91.2671 S2            1 RES     
    5095 N4         178.1747  -148.6756   -92.1110 N4            1 RES     
    5096 C1         177.1129  -148.4919   -91.2878 C1            1 RES     
    5097 C1         175.8163  -148.9100   -91.5753 C1            1 RES     
    5098 H5         174.2104  -147.7584   -88.8577 H5            1 RES     
    5099 C0         177.4586  -147.0640   -83.5655 C0            1 RES     
    5100 C0         175.9481  -147.4919   -83.4344 C0            1 RES     
    5101 C0         175.8961  -148.4277   -82.1759 C0            1 RES     
    5102 C0         174.5410  -149.0636   -81.8414 C0            1 RES     
    5103 C0         174.5973  -149.9220   -80.5558 C0            1 RES     
    5104 C0         175.5405  -151.1442   -80.6037 C0            1 RES     
    5105 C0         175.2830  -152.1161   -81.7687 C0            1 RES     
    5106 C0         173.8473  -152.6701   -81.7858 C0            1 RES     
    5107 C0         173.5766  -153.5955   -82.9807 C0            1 RES     
    5108 C0         174.3741  -154.9093   -82.9220 C0            1 RES     
    5109 C0         174.0104  -155.8758   -84.0604 C0            1 RES     
    5110 C0         174.3969  -155.3503   -85.4434 C0            1 RES     
    5111 C0         174.8346  -146.3947   -83.3963 C0            1 RES     
    5112 C0         174.7882  -145.3968   -82.1985 C0            1 RES     
    5113 C0         174.9267  -143.9694   -82.7365 C0            1 RES     
    5114 C0         175.2346  -142.8549   -81.7406 C0            1 RES     
    5115 C0         174.0587  -142.3236   -80.9342 C0            1 RES     
    5116 C0         174.5818  -141.1828   -80.0362 C0            1 RES     
    5117 C0         173.4865  -140.4102   -79.2976 C0            1 RES     
    5118 C0         172.6146  -139.5875   -80.2485 C0            1 RES     
    5119 H6         177.7215  -146.7484   -82.5883 H6            1 RES     
    5120 H6         177.9790  -148.0301   -83.7542 H6            1 RES     
    5121 H6         175.7110  -148.1000   -84.3359 H6            1 RES     
    5122 H6         176.2190  -147.8546   -81.2794 H6            1 RES     
    5123 H6         176.6304  -149.2467   -82.3326 H6            1 RES     
    5124 H6         174.1808  -149.6668   -82.6994 H6            1 RES     
    5125 H6         173.8008  -148.2622   -81.6436 H6            1 RES     
    5126 H6         173.5689  -150.2718   -80.3294 H6            1 RES     
    5127 H6         174.9072  -149.2817   -79.7003 H6            1 RES     
    5128 H6         175.4384  -151.6963   -79.6428 H6            1 RES     
    5129 H6         176.5953  -150.8009   -80.6660 H6            1 RES     
    5130 H6         175.4906  -151.5992   -82.7293 H6            1 RES     
    5131 H6         176.0089  -152.9496   -81.6692 H6            1 RES     
    5132 H6         173.1379  -151.8233   -81.8840 H6            1 RES     
    5133 H6         173.6274  -153.2017   -80.8341 H6            1 RES     
    5134 H6         172.4937  -153.8476   -82.9709 H6            1 RES     
    5135 H6         173.7958  -153.0386   -83.9159 H6            1 RES     
    5136 H6         175.4659  -154.7135   -82.9545 H6            1 RES     
    5137 H6         174.1367  -155.4147   -81.9606 H6            1 RES     
    5138 H6         172.9205  -156.0947   -84.0355 H6            1 RES     
    5139 H6         174.5576  -156.8285   -83.8926 H6            1 RES     
    5140 H6         173.8414  -154.4241   -85.6939 H6            1 RES     
    5141 H6         175.4883  -155.1484   -85.4850 H6            1 RES     
    5142 H6         174.1476  -156.1142   -86.2094 H6            1 RES     
    5143 H6         173.8520  -146.9127   -83.4187 H6            1 RES     
    5144 H6         174.8438  -145.8568   -84.3685 H6            1 RES     
    5145 H6         173.8174  -145.4721   -81.6591 H6            1 RES     
    5146 H6         175.6013  -145.6258   -81.4800 H6            1 RES     
    5147 H6         174.0919  -143.6914   -83.4138 H6            1 RES     
    5148 H6         175.8166  -144.0158   -83.3273 H6            1 RES     
    5149 H6         176.0477  -143.1761   -81.0850 H6            1 RES     
    5150 H6         175.6162  -141.9967   -82.3393 H6            1 RES     
    5151 H6         173.3082  -141.9439   -81.6595 H6            1 RES     
    5152 H6         173.5976  -143.1213   -80.3143 H6            1 RES     
    5153 H6         175.2761  -141.6264   -79.2869 H6            1 RES     
    5154 H6         175.1635  -140.4485   -80.6387 H6            1 RES     
    5155 H6         173.9850  -139.6971   -78.6047 H6            1 RES     
    5156 H6         172.8625  -141.1054   -78.6975 H6            1 RES     
    5157 H6         172.0520  -140.2364   -80.9483 H6            1 RES     
    5158 H6         171.8840  -138.9947   -79.6616 H6            1 RES     
    5159 H6         173.2469  -138.8836   -80.8347 H6            1 RES     
    5160 C0         179.7174  -146.2246   -84.5773 C0            1 RES     
    5161 C0         180.5936  -146.9414   -83.4527 C0            1 RES     
    5162 C0         182.0523  -146.3948   -83.6132 C0            1 RES     
    5163 C0         183.1358  -147.1408   -82.8085 C0            1 RES     
    5164 C0         184.5490  -146.5555   -82.9775 C0            1 RES     
    5165 C0         185.1038  -146.5518   -84.4132 C0            1 RES     
    5166 C0         185.0864  -147.9152   -85.1241 C0            1 RES     
    5167 C0         185.8614  -149.0094   -84.3690 C0            1 RES     
    5168 C0         185.8301  -150.3668   -85.0900 C0            1 RES     
    5169 C0         186.5890  -150.3513   -86.4290 C0            1 RES     
    5170 C0         186.6663  -151.7358   -87.0911 C0            1 RES     
    5171 C0         185.3030  -152.2734   -87.5265 C0            1 RES     
    5172 C0         180.1948  -147.0687   -81.9224 C0            1 RES     
    5173 C0         180.1316  -145.8316   -80.9825 C0            1 RES     
    5174 C0         178.6858  -145.4252   -80.6449 C0            1 RES     
    5175 C0         178.5103  -144.1865   -79.7821 C0            1 RES     
    5176 C0         178.8691  -144.3149   -78.3084 C0            1 RES     
    5177 C0         178.4439  -142.9999   -77.6237 C0            1 RES     
    5178 C0         178.5871  -143.0022   -76.1006 C0            1 RES     
    5179 C0         177.6074  -143.9641   -75.4267 C0            1 RES     
    5180 H6         180.1648  -145.2269   -84.7950 H6            1 RES     
    5181 H6         179.9765  -146.7702   -85.5128 H6            1 RES     
    5182 H6         180.6044  -148.0098   -83.7698 H6            1 RES     
    5183 H6         182.0720  -145.3222   -83.3227 H6            1 RES     
    5184 H6         182.3232  -146.4625   -84.6888 H6            1 RES     
    5185 H6         183.1285  -148.2145   -83.0905 H6            1 RES     
    5186 H6         182.9321  -147.0613   -81.7231 H6            1 RES     
    5187 H6         185.2360  -147.1386   -82.3276 H6            1 RES     
    5188 H6         184.5594  -145.5098   -82.5989 H6            1 RES     
    5189 H6         186.1490  -146.1744   -84.3730 H6            1 RES     
    5190 H6         184.5210  -145.8344   -85.0294 H6            1 RES     
    5191 H6         184.0356  -148.2453   -85.2691 H6            1 RES     
    5192 H6         185.5330  -147.7568   -86.1269 H6            1 RES     
    5193 H6         185.3892  -149.1637   -83.3764 H6            1 RES     
    5194 H6         186.9149  -148.6939   -84.2077 H6            1 RES     
    5195 H6         186.3172  -151.1124   -84.4244 H6            1 RES     
    5196 H6         184.7718  -150.6704   -85.2366 H6            1 RES     
    5197 H6         186.1216  -149.6428   -87.1434 H6            1 RES     
    5198 H6         187.6300  -150.0140   -86.2318 H6            1 RES     
    5199 H6         187.1490  -152.4586   -86.3980 H6            1 RES     
    5200 H6         187.3033  -151.6478   -87.9975 H6            1 RES     
    5201 H6         184.6358  -152.4343   -86.6557 H6            1 RES     
    5202 H6         184.8207  -151.5677   -88.2359 H6            1 RES     
    5203 H6         185.4403  -153.2500   -88.0366 H6            1 RES     
    5204 H6         180.9690  -147.7265   -81.4866 H6            1 RES     
    5205 H6         179.3351  -147.7433   -81.7503 H6            1 RES     
    5206 H6         180.5691  -146.1280   -80.0037 H6            1 RES     
    5207 H6         180.7444  -144.9982   -81.3817 H6            1 RES     
    5208 H6         178.1410  -146.2835   -80.1901 H6            1 RES     
    5209 H6         178.1639  -145.1426   -81.5523 H6            1 RES     
    5210 H6         179.0308  -143.3228   -80.2501 H6            1 RES     
    5211 H6         177.4243  -143.9966   -79.7806 H6            1 RES     
    5212 H6         178.2984  -145.1729   -77.8943 H6            1 RES     
    5213 H6         179.9554  -144.4987   -78.1739 H6            1 RES     
    5214 H6         179.0658  -142.1776   -78.0411 H6            1 RES     
    5215 H6         177.3794  -142.7685   -77.8587 H6            1 RES     
    5216 H6         178.3453  -141.9768   -75.7444 H6            1 RES     
    5217 H6         179.6311  -143.2401   -75.8156 H6            1 RES     
    5218 H6         177.8157  -145.0161   -75.7056 H6            1 RES     
    5219 H6         177.7026  -143.8716   -74.3253 H6            1 RES     
    5220 H6         176.5624  -143.7117   -75.7115 H6            1 RES     
    5221 C0         175.1003  -152.8609   -95.2436 C0            1 RES     
    5222 C1         175.1562  -151.5200   -94.4789 C1            1 RES     
    5223 C1         175.0107  -150.4490   -95.3016 C1            1 RES     
    5224 S2         175.1586  -148.9772   -94.5177 S2            1 RES     
    5225 C1         175.4717  -149.7285   -93.0249 C1            1 RES     
    5226 C1         175.4584  -151.1205   -93.1664 C1            1 RES     
    5227 C1         174.8840  -150.9095   -96.6300 C1            1 RES     
    5228 C1         175.0162  -152.2634   -96.6489 C1            1 RES     
    5229 C1         175.0451  -152.7734   -97.9414 C1            1 RES     
    5230 C1         174.8918  -151.7423   -98.8835 C1            1 RES     
    5231 S2         174.7406  -150.2238   -98.1386 S2            1 RES     
    5232 H3         175.7101  -151.7708   -92.3503 H3            1 RES     
    5233 H3         175.1737  -153.8210   -98.1856 H3            1 RES     
    5234 N4         173.9656  -151.7405  -102.5157 N4            1 RES     
    5235 C1         173.8590  -151.6479  -101.1577 C1            1 RES     
    5236 C1         174.9733  -151.8810  -100.3333 C1            1 RES     
    5237 C1         176.1914  -152.1858  -100.9434 C1            1 RES     
    5238 N4         177.3538  -152.3763  -100.2681 N4            1 RES     
    5239 S2         178.4332  -152.6321  -101.4933 S2            1 RES     
    5240 N4         177.5106  -152.5198  -102.8625 N4            1 RES     
    5241 C1         176.2805  -152.2567  -102.3563 C1            1 RES     
    5242 C1         175.1432  -152.0435  -103.1307 C1            1 RES     
    5243 H5         172.8983  -151.3999  -100.7146 H5            1 RES     
    5244 C0         173.8754  -153.8199   -95.0376 C0            1 RES     
    5245 C0         172.3807  -153.6815   -95.5157 C0            1 RES     
    5246 C0         171.6331  -154.9060   -94.8800 C0            1 RES     
    5247 C0         170.1513  -155.0745   -95.2381 C0            1 RES     
    5248 C0         169.5069  -156.2811   -94.5159 C0            1 RES     
    5249 C0         170.0970  -157.6659   -94.8622 C0            1 RES     
    5250 C0         170.1089  -158.0083   -96.3625 C0            1 RES     
    5251 C0         168.7111  -157.9550   -97.0043 C0            1 RES     
    5252 C0         168.7333  -158.2421   -98.5125 C0            1 RES     
    5253 C0         169.1312  -159.6895   -98.8477 C0            1 RES     
    5254 C0         169.0390  -159.9976  -100.3506 C0            1 RES     
    5255 C0         170.0431  -159.2070  -101.1903 C0            1 RES     
    5256 C0         171.6148  -152.3389   -95.2790 C0            1 RES     
    5257 C0         171.3245  -151.8740   -93.8187 C0            1 RES     
    5258 C0         171.9754  -150.5057   -93.5952 C0            1 RES     
    5259 C0         172.1065  -150.0001   -92.1613 C0            1 RES     
    5260 C0         170.8580  -149.3891   -91.5421 C0            1 RES     
    5261 C0         171.2254  -148.9058   -90.1234 C0            1 RES     
    5262 C0         170.1290  -148.0925   -89.4316 C0            1 RES     
    5263 C0         169.9060  -146.7336   -90.0987 C0            1 RES     
    5264 H6         173.7966  -153.9814   -93.9929 H6            1 RES     
    5265 H6         174.2000  -154.7799   -95.4990 H6            1 RES     
    5266 H6         172.3880  -153.8083   -96.6214 H6            1 RES     
    5267 H6         171.6966  -154.8391   -93.7719 H6            1 RES     
    5268 H6         172.1687  -155.8283   -95.1915 H6            1 RES     
    5269 H6         170.0327  -155.1670   -96.3368 H6            1 RES     
    5270 H6         169.5904  -154.1794   -94.9012 H6            1 RES     
    5271 H6         168.4225  -156.2848   -94.7511 H6            1 RES     
    5272 H6         169.5897  -156.1374   -93.4158 H6            1 RES     
    5273 H6         169.5065  -158.4377   -94.3198 H6            1 RES     
    5274 H6         171.1391  -157.7343   -94.4833 H6            1 RES     
    5275 H6         170.7856  -157.3057   -96.8930 H6            1 RES     
    5276 H6         170.5332  -159.0288   -96.4643 H6            1 RES     
    5277 H6         168.3040  -156.9296   -96.8911 H6            1 RES     
    5278 H6         168.0236  -158.6627   -96.4914 H6            1 RES     
    5279 H6         167.7069  -158.0665   -98.9023 H6            1 RES     
    5280 H6         169.4193  -157.5180   -99.0001 H6            1 RES     
    5281 H6         170.1620  -159.9091   -98.5003 H6            1 RES     
    5282 H6         168.4300  -160.3715   -98.3191 H6            1 RES     
    5283 H6         168.0077  -159.7959  -100.7143 H6            1 RES     
    5284 H6         169.2506  -161.0790  -100.4951 H6            1 RES     
    5285 H6         169.8507  -158.1168  -101.1305 H6            1 RES     
    5286 H6         171.0785  -159.4180  -100.8481 H6            1 RES     
    5287 H6         169.9519  -159.5107  -102.2542 H6            1 RES     
    5288 H6         170.6316  -152.4187   -95.7902 H6            1 RES     
    5289 H6         172.1237  -151.5415   -95.8618 H6            1 RES     
    5290 H6         170.2295  -151.7698   -93.6477 H6            1 RES     
    5291 H6         171.7176  -152.6181   -93.0966 H6            1 RES     
    5292 H6         171.5575  -149.7255   -94.2657 H6            1 RES     
    5293 H6         172.9915  -150.6675   -93.8863 H6            1 RES     
    5294 H6         172.5039  -150.8021   -91.5345 H6            1 RES     
    5295 H6         172.8722  -149.1915   -92.1832 H6            1 RES     
    5296 H6         170.5568  -148.5354   -92.1854 H6            1 RES     
    5297 H6         170.0264  -150.1237   -91.4956 H6            1 RES     
    5298 H6         171.4529  -149.8024   -89.5033 H6            1 RES     
    5299 H6         172.1438  -148.2763   -90.1521 H6            1 RES     
    5300 H6         170.4601  -147.8987   -88.3876 H6            1 RES     
    5301 H6         169.1824  -148.6719   -89.3983 H6            1 RES     
    5302 H6         169.5345  -146.8460   -91.1363 H6            1 RES     
    5303 H6         169.1548  -146.1567   -89.5220 H6            1 RES     
    5304 H6         170.8564  -146.1545   -90.1140 H6            1 RES     
    5305 C0         176.4749  -153.5725   -94.9276 C0            1 RES     
    5306 C0         176.6570  -154.9015   -94.0635 C0            1 RES     
    5307 C0         178.1433  -154.9082   -93.5703 C0            1 RES     
    5308 C0         178.6295  -156.2278   -92.9377 C0            1 RES     
    5309 C0         180.0871  -156.1816   -92.4462 C0            1 RES     
    5310 C0         181.1465  -155.8852   -93.5226 C0            1 RES     
    5311 C0         181.1079  -156.8108   -94.7500 C0            1 RES     
    5312 C0         181.2610  -158.3011   -94.3981 C0            1 RES     
    5313 C0         181.2152  -159.2129   -95.6349 C0            1 RES     
    5314 C0         182.4215  -159.0146   -96.5701 C0            1 RES     
    5315 C0         182.4436  -160.0099   -97.7406 C0            1 RES     
    5316 C0         181.2783  -159.8243   -98.7125 C0            1 RES     
    5317 C0         175.6723  -155.3945   -92.9214 C0            1 RES     
    5318 C0         175.5211  -154.6277   -91.5771 C0            1 RES     
    5319 C0         174.1881  -153.8636   -91.4849 C0            1 RES     
    5320 C0         173.9673  -153.0276   -90.2350 C0            1 RES     
    5321 C0         173.6809  -153.7796   -88.9429 C0            1 RES     
    5322 C0         173.3240  -152.7245   -87.8759 C0            1 RES     
    5323 C0         172.8537  -153.3056   -86.5412 C0            1 RES     
    5324 C0         171.5016  -154.0107   -86.6590 C0            1 RES     
    5325 H6         177.1807  -152.7992   -94.5444 H6            1 RES     
    5326 H6         176.9523  -153.8153   -95.9039 H6            1 RES     
    5327 H6         176.5543  -155.7188   -94.8143 H6            1 RES     
    5328 H6         178.2845  -154.0893   -92.8323 H6            1 RES     
    5329 H6         178.7922  -154.6941   -94.4466 H6            1 RES     
    5330 H6         178.4958  -157.0552   -93.6657 H6            1 RES     
    5331 H6         178.0394  -156.4598   -92.0300 H6            1 RES     
    5332 H6         180.3162  -157.1616   -91.9758 H6            1 RES     
    5333 H6         180.1795  -155.4130   -91.6476 H6            1 RES     
    5334 H6         182.1475  -155.9560   -93.0434 H6            1 RES     
    5335 H6         181.0270  -154.8389   -93.8762 H6            1 RES     
    5336 H6         180.1535  -156.6608   -95.2986 H6            1 RES     
    5337 H6         181.9352  -156.4909   -95.4158 H6            1 RES     
    5338 H6         180.4158  -158.6046   -93.7457 H6            1 RES     
    5339 H6         182.2081  -158.4702   -93.8415 H6            1 RES     
    5340 H6         181.2237  -160.2655   -95.2771 H6            1 RES     
    5341 H6         180.2607  -159.0367   -96.1749 H6            1 RES     
    5342 H6         182.4416  -157.9842   -96.9811 H6            1 RES     
    5343 H6         183.3482  -159.1727   -95.9763 H6            1 RES     
    5344 H6         182.4424  -161.0508   -97.3501 H6            1 RES     
    5345 H6         183.3874  -159.8539   -98.3062 H6            1 RES     
    5346 H6         180.3054  -160.0199   -98.2182 H6            1 RES     
    5347 H6         181.2824  -158.7927   -99.1244 H6            1 RES     
    5348 H6         181.3846  -160.5419   -99.5531 H6            1 RES     
    5349 H6         176.0467  -156.3970   -92.6444 H6            1 RES     
    5350 H6         174.6878  -155.7218   -93.3054 H6            1 RES     
    5351 H6         175.4621  -155.3824   -90.7622 H6            1 RES     
    5352 H6         176.4095  -153.9943   -91.3796 H6            1 RES     
    5353 H6         173.3331  -154.5627   -91.6284 H6            1 RES     
    5354 H6         174.1408  -153.1145   -92.2673 H6            1 RES     
    5355 H6         174.8069  -152.3104   -90.1066 H6            1 RES     
    5356 H6         173.0393  -152.4662   -90.4328 H6            1 RES     
    5357 H6         172.8188  -154.4548   -89.1279 H6            1 RES     
    5358 H6         174.5572  -154.3827   -88.6265 H6            1 RES     
    5359 H6         174.2252  -152.0977   -87.6965 H6            1 RES     
    5360 H6         172.5172  -152.0534   -88.2509 H6            1 RES     
    5361 H6         172.7252  -152.4543   -85.8371 H6            1 RES     
    5362 H6         173.6211  -153.9921   -86.1320 H6            1 RES     
    5363 H6         171.5639  -154.8993   -87.3180 H6            1 RES     
    5364 H6         171.1749  -154.3464   -85.6535 H6            1 RES     
    5365 H6         170.7363  -153.3113   -87.0617 H6            1 RES     
    5366 C0         175.0680  -153.9258  -108.2326 C0            1 RES     
    5367 C1         175.1149  -153.0523  -106.9595 C1            1 RES     
    5368 C1         175.5452  -151.7893  -107.2144 C1            1 RES     
    5369 S2         175.6956  -150.8432  -105.8416 S2            1 RES     
    5370 C1         175.2229  -152.1231  -104.8269 C1            1 RES     
    5371 C1         174.9582  -153.2717  -105.5808 C1            1 RES     
    5372 C1         175.8512  -151.6814  -108.5882 C1            1 RES     
    5373 C1         175.6767  -152.8929  -109.1822 C1            1 RES     
    5374 C1         176.0966  -152.8971  -110.5069 C1            1 RES     
    5375 C1         176.5579  -151.6245  -110.8838 C1            1 RES     
    5376 S2         176.4670  -150.5150  -109.6016 S2            1 RES     
    5377 H3         174.7186  -154.2079  -105.1134 H3            1 RES     
    5378 H3         176.0752  -153.7649  -111.1554 H3            1 RES     
    5379 N4         177.1566  -150.0278  -114.2217 N4            1 RES     
    5380 C1         176.5491  -150.3783  -113.0503 C1            1 RES     
    5381 C1         177.1688  -151.2729  -112.1608 C1            1 RES     
    5382 C1         178.4281  -151.7716  -112.4992 C1            1 RES     
    5383 N4         179.1586  -152.5954  -111.7048 N4            1 RES     
    5384 S2         180.5463  -152.7883  -112.5817 S2            1 RES     
    5385 N4         180.2848  -151.8798  -113.9399 N4            1 RES     
    5386 C1         179.0463  -151.3769  -113.7121 C1            1 RES     
    5387 C1         178.3821  -150.5083  -114.5741 C1            1 RES     
    5388 H5         175.5726  -149.9653  -112.8126 H5            1 RES     
    5389 C0         173.6811  -154.3767  -108.8123 C0            1 RES     
    5390 C0         172.5651  -153.5442  -109.5493 C0            1 RES     
    5391 C0         171.3770  -154.5479  -109.7576 C0            1 RES     
    5392 C0         170.1573  -154.0267  -110.5278 C0            1 RES     
    5393 C0         169.0313  -155.0827  -110.6272 C0            1 RES     
    5394 C0         169.3872  -156.3754  -111.3941 C0            1 RES     
    5395 C0         169.9106  -156.1569  -112.8246 C0            1 RES     
    5396 C0         168.9265  -155.3768  -113.7143 C0            1 RES     
    5397 C0         169.4744  -155.1114  -115.1238 C0            1 RES     
    5398 C0         169.6404  -156.3917  -115.9599 C0            1 RES     
    5399 C0         170.0796  -156.1044  -117.4045 C0            1 RES     
    5400 C0         171.4806  -155.4990  -117.4991 C0            1 RES     
    5401 C0         172.0860  -152.1857  -108.9410 C0            1 RES     
    5402 C0         171.3568  -152.1826  -107.5623 C0            1 RES     
    5403 C0         172.1533  -151.3163  -106.5819 C0            1 RES     
    5404 C0         171.8198  -151.4234  -105.0966 C0            1 RES     
    5405 C0         170.5976  -150.6523  -104.6200 C0            1 RES     
    5406 C0         170.4760  -150.8599  -103.0957 C0            1 RES     
    5407 C0         169.4059  -149.9948  -102.4258 C0            1 RES     
    5408 C0         169.7697  -148.5086  -102.4380 C0            1 RES     
    5409 H6         173.1651  -154.8485  -108.0156 H6            1 RES     
    5410 H6         173.9393  -155.1653  -109.5547 H6            1 RES     
    5411 H6         172.9774  -153.2741  -110.5471 H6            1 RES     
    5412 H6         171.0136  -154.8965  -108.7662 H6            1 RES     
    5413 H6         171.7730  -155.4331  -110.2998 H6            1 RES     
    5414 H6         170.4621  -153.6833  -111.5372 H6            1 RES     
    5415 H6         169.7227  -153.1645  -109.9828 H6            1 RES     
    5416 H6         168.1547  -154.6073  -111.1138 H6            1 RES     
    5417 H6         168.7054  -155.3693  -109.6027 H6            1 RES     
    5418 H6         168.4762  -157.0133  -111.4358 H6            1 RES     
    5419 H6         170.1537  -156.9473  -110.8286 H6            1 RES     
    5420 H6         170.8786  -155.6144  -112.7814 H6            1 RES     
    5421 H6         170.1033  -157.1586  -113.2618 H6            1 RES     
    5422 H6         168.7457  -154.3810  -113.2606 H6            1 RES     
    5423 H6         167.9546  -155.9136  -113.7776 H6            1 RES     
    5424 H6         168.7500  -154.4490  -115.6459 H6            1 RES     
    5425 H6         170.4386  -154.5687  -115.0319 H6            1 RES     
    5426 H6         170.3757  -157.0791  -115.4928 H6            1 RES     
    5427 H6         168.6560  -156.9067  -116.0019 H6            1 RES     
    5428 H6         169.3464  -155.4266  -117.8938 H6            1 RES     
    5429 H6         170.0856  -157.0661  -117.9614 H6            1 RES     
    5430 H6         171.5270  -154.5074  -117.0054 H6            1 RES     
    5431 H6         172.2239  -156.1789  -117.0312 H6            1 RES     
    5432 H6         171.7494  -155.3600  -118.5672 H6            1 RES     
    5433 H6         171.3912  -151.7176  -109.6708 H6            1 RES     
    5434 H6         172.9456  -151.4817  -108.9436 H6            1 RES     
    5435 H6         170.3352  -151.7506  -107.6567 H6            1 RES     
    5436 H6         171.2596  -153.2191  -107.1802 H6            1 RES     
    5437 H6         172.2162  -150.2574  -106.9100 H6            1 RES     
    5438 H6         173.1387  -151.7277  -106.6367 H6            1 RES     
    5439 H6         171.7509  -152.4785  -104.8209 H6            1 RES     
    5440 H6         172.6911  -150.9978  -104.5486 H6            1 RES     
    5441 H6         170.7702  -149.5820  -104.8611 H6            1 RES     
    5442 H6         169.6742  -150.9983  -105.1308 H6            1 RES     
    5443 H6         170.2371  -151.9322  -102.9131 H6            1 RES     
    5444 H6         171.4466  -150.6426  -102.5944 H6            1 RES     
    5445 H6         169.3348  -150.3097  -101.3614 H6            1 RES     
    5446 H6         168.4195  -150.1601  -102.9079 H6            1 RES     
    5447 H6         169.8203  -148.1109  -103.4707 H6            1 RES     
    5448 H6         169.0006  -147.9345  -101.8826 H6            1 RES     
    5449 H6         170.7524  -148.3513  -101.9397 H6            1 RES     
    5450 C0         176.0134  -155.1533  -107.9246 C0            1 RES     
    5451 C0         175.5425  -156.6669  -107.7416 C0            1 RES     
    5452 C0         176.6744  -157.3877  -106.9344 C0            1 RES     
    5453 C0         176.5678  -158.9245  -106.8645 C0            1 RES     
    5454 C0         177.6864  -159.5885  -106.0423 C0            1 RES     
    5455 C0         179.1202  -159.3485  -106.5478 C0            1 RES     
    5456 C0         179.3623  -159.7095  -108.0228 C0            1 RES     
    5457 C0         179.0308  -161.1746  -108.3569 C0            1 RES     
    5458 C0         179.2731  -161.5179  -109.8357 C0            1 RES     
    5459 C0         180.7609  -161.4651  -110.2266 C0            1 RES     
    5460 C0         181.0194  -161.9284  -111.6688 C0            1 RES     
    5461 C0         180.4015  -161.0051  -112.7189 C0            1 RES     
    5462 C0         174.1061  -157.1269  -107.2495 C0            1 RES     
    5463 C0         173.6136  -156.8739  -105.7964 C0            1 RES     
    5464 C0         172.5566  -155.7574  -105.7219 C0            1 RES     
    5465 C0         172.0543  -155.3864  -104.3363 C0            1 RES     
    5466 C0         171.1250  -156.3778  -103.6503 C0            1 RES     
    5467 C0         170.6215  -155.7046  -102.3571 C0            1 RES     
    5468 C0         169.5492  -156.4957  -101.6058 C0            1 RES     
    5469 C0         168.2322  -156.5687  -102.3799 C0            1 RES     
    5470 H6         176.6645  -154.8764  -107.0630 H6            1 RES     
    5471 H6         176.7689  -155.2004  -108.7413 H6            1 RES     
    5472 H6         175.5644  -157.0756  -108.7782 H6            1 RES     
    5473 H6         176.6923  -156.9872  -105.8977 H6            1 RES     
    5474 H6         177.6450  -157.1375  -107.4141 H6            1 RES     
    5475 H6         176.5508  -159.3386  -107.8945 H6            1 RES     
    5476 H6         175.6334  -159.2226  -106.3507 H6            1 RES     
    5477 H6         177.4893  -160.6817  -106.0247 H6            1 RES     
    5478 H6         177.6259  -159.2345  -104.9896 H6            1 RES     
    5479 H6         179.8101  -159.9420  -105.9088 H6            1 RES     
    5480 H6         179.3841  -158.2785  -106.4072 H6            1 RES     
    5481 H6         178.7588  -159.0406  -108.6729 H6            1 RES     
    5482 H6         180.4329  -159.5060  -108.2286 H6            1 RES     
    5483 H6         177.9530  -161.3527  -108.1599 H6            1 RES     
    5484 H6         179.6203  -161.8602  -107.7105 H6            1 RES     
    5485 H6         178.9071  -162.5540  -110.0047 H6            1 RES     
    5486 H6         178.6719  -160.8293  -110.4666 H6            1 RES     
    5487 H6         181.1684  -160.4403  -110.1055 H6            1 RES     
    5488 H6         181.3202  -162.1466  -109.5489 H6            1 RES     
    5489 H6         180.6345  -162.9621  -111.8072 H6            1 RES     
    5490 H6         182.1185  -161.9438  -111.8326 H6            1 RES     
    5491 H6         179.2957  -160.9885  -112.6413 H6            1 RES     
    5492 H6         180.7954  -159.9730  -112.6022 H6            1 RES     
    5493 H6         180.6673  -161.3732  -113.7322 H6            1 RES     
    5494 H6         174.1095  -158.2259  -107.3687 H6            1 RES     
    5495 H6         173.3054  -156.9162  -107.9831 H6            1 RES     
    5496 H6         173.0739  -157.7860  -105.4588 H6            1 RES     
    5497 H6         174.4695  -156.7205  -105.1084 H6            1 RES     
    5498 H6         171.6947  -155.9984  -106.3848 H6            1 RES     
    5499 H6         172.9874  -154.8224  -106.0623 H6            1 RES     
    5500 H6         172.9124  -155.1189  -103.6821 H6            1 RES     
    5501 H6         171.4278  -154.4931  -104.4943 H6            1 RES     
    5502 H6         170.2784  -156.5814  -104.3396 H6            1 RES     
    5503 H6         171.6495  -157.3294  -103.4235 H6            1 RES     
    5504 H6         171.4945  -155.5553  -101.6842 H6            1 RES     
    5505 H6         170.1971  -154.6996  -102.5848 H6            1 RES     
    5506 H6         169.3469  -155.9568  -100.6542 H6            1 RES     
    5507 H6         169.9217  -157.5114  -101.3663 H6            1 RES     
    5508 H6         168.3495  -157.1314  -103.3273 H6            1 RES     
    5509 H6         167.4716  -157.0868  -101.7604 H6            1 RES     
    5510 H6         167.8620  -155.5450  -102.6075 H6            1 RES     
    5511 C0         179.8998  -150.3428  -119.7940 C0            1 RES     
    5512 C1         179.6357  -150.0456  -118.3014 C1            1 RES     
    5513 C1         180.3996  -149.0241  -117.8344 C1            1 RES     
    5514 S2         180.2049  -148.7366  -116.1968 S2            1 RES     
    5515 C1         179.1012  -150.0198  -116.0350 C1            1 RES     
    5516 C1         178.9062  -150.6544  -117.2666 C1            1 RES     
    5517 C1         181.2358  -148.5679  -118.8763 C1            1 RES     
    5518 C1         181.0446  -149.3451  -119.9764 C1            1 RES     
    5519 C1         181.9384  -149.0447  -120.9973 C1            1 RES     
    5520 C1         182.7799  -147.9840  -120.6217 C1            1 RES     
    5521 S2         182.4416  -147.4356  -119.0507 S2            1 RES     
    5522 H3         178.3015  -151.5370  -117.3547 H3            1 RES     
    5523 H3         181.9814  -149.5622  -121.9481 H3            1 RES     
    5524 N4         184.9780  -145.6699  -122.5874 N4            1 RES     
    5525 C1         183.8983  -146.1551  -121.9069 C1            1 RES     
    5526 C1         183.9043  -147.4626  -121.3908 C1            1 RES     
    5527 C1         185.0508  -148.2377  -121.5745 C1            1 RES     
    5528 N4         185.2087  -149.4917  -121.0784 N4            1 RES     
    5529 S2         186.7489  -149.8634  -121.5491 S2            1 RES     
    5530 N4         187.2496  -148.5133  -122.3643 N4            1 RES     
    5531 C1         186.1661  -147.7039  -122.2676 C1            1 RES     
    5532 C1         186.1037  -146.4121  -122.7836 C1            1 RES     
    5533 H5         183.0248  -145.5228  -121.7736 H5            1 RES     
    5534 C0         178.7893  -150.0238  -120.8559 C0            1 RES     
    5535 C0         178.2666  -148.6409  -121.4003 C0            1 RES     
    5536 C0         177.0653  -149.0006  -122.3436 C0            1 RES     
    5537 C0         176.3941  -147.8374  -123.0843 C0            1 RES     
    5538 C0         175.1940  -148.3027  -123.9422 C0            1 RES     
    5539 C0         175.5261  -149.2846  -125.0873 C0            1 RES     
    5540 C0         176.6032  -148.7929  -126.0704 C0            1 RES     
    5541 C0         176.2465  -147.4509  -126.7339 C0            1 RES     
    5542 C0         177.3475  -146.9351  -127.6716 C0            1 RES     
    5543 C0         177.5402  -147.8127  -128.9199 C0            1 RES     
    5544 C0         178.5627  -147.2259  -129.9060 C0            1 RES     
    5545 C0         179.9847  -147.1836  -129.3452 C0            1 RES     
    5546 C0         177.9012  -147.5021  -120.3929 C0            1 RES     
    5547 C0         176.7099  -147.7091  -119.4076 C0            1 RES     
    5548 C0         177.2282  -147.5916  -117.9711 C0            1 RES     
    5549 C0         176.3239  -148.0754  -116.8411 C0            1 RES     
    5550 C0         175.2167  -147.1263  -116.4066 C0            1 RES     
    5551 C0         174.4641  -147.7881  -115.2332 C0            1 RES     
    5552 C0         173.4376  -146.8804  -114.5516 C0            1 RES     
    5553 C0         174.0964  -145.7256  -113.7942 C0            1 RES     
    5554 H6         177.9114  -150.5178  -120.5257 H6            1 RES     
    5555 H6         179.1363  -150.5429  -121.7778 H6            1 RES     
    5556 H6         179.0860  -148.2137  -122.0204 H6            1 RES     
    5557 H6         176.2747  -149.5115  -121.7516 H6            1 RES     
    5558 H6         177.4354  -149.7230  -123.1024 H6            1 RES     
    5559 H6         177.1384  -147.3033  -123.7093 H6            1 RES     
    5560 H6         175.9833  -147.1217  -122.3438 H6            1 RES     
    5561 H6         174.7076  -147.4026  -124.3718 H6            1 RES     
    5562 H6         174.4376  -148.7850  -123.2841 H6            1 RES     
    5563 H6         174.5880  -149.4874  -125.6504 H6            1 RES     
    5564 H6         175.8619  -150.2549  -124.6629 H6            1 RES     
    5565 H6         177.5705  -148.6939  -125.5342 H6            1 RES     
    5566 H6         176.7248  -149.5777  -126.8456 H6            1 RES     
    5567 H6         176.1278  -146.6813  -125.9442 H6            1 RES     
    5568 H6         175.2848  -147.5367  -127.2858 H6            1 RES     
    5569 H6         177.0524  -145.9169  -128.0069 H6            1 RES     
    5570 H6         178.2924  -146.8512  -127.0947 H6            1 RES     
    5571 H6         177.8610  -148.8375  -128.6398 H6            1 RES     
    5572 H6         176.5637  -147.8825  -129.4469 H6            1 RES     
    5573 H6         178.2503  -146.2027  -130.2088 H6            1 RES     
    5574 H6         178.5735  -147.8664  -130.8142 H6            1 RES     
    5575 H6         180.0521  -146.5147  -128.4636 H6            1 RES     
    5576 H6         180.3140  -148.2050  -129.0590 H6            1 RES     
    5577 H6         180.6745  -146.7927  -130.1222 H6            1 RES     
    5578 H6         177.6710  -146.5910  -120.9855 H6            1 RES     
    5579 H6         178.8255  -147.2081  -119.8511 H6            1 RES     
    5580 H6         175.9307  -146.9290  -119.5606 H6            1 RES     
    5581 H6         176.2436  -148.7009  -119.5764 H6            1 RES     
    5582 H6         177.6478  -146.5864  -117.7553 H6            1 RES     
    5583 H6         178.0383  -148.2890  -117.9454 H6            1 RES     
    5584 H6         175.9205  -149.0569  -117.1016 H6            1 RES     
    5585 H6         176.9810  -148.2164  -115.9529 H6            1 RES     
    5586 H6         175.7026  -146.1816  -116.0826 H6            1 RES     
    5587 H6         174.5162  -146.9103  -117.2408 H6            1 RES     
    5588 H6         173.9416  -148.6900  -115.6254 H6            1 RES     
    5589 H6         175.1820  -148.1294  -114.4530 H6            1 RES     
    5590 H6         172.8867  -147.4944  -113.8054 H6            1 RES     
    5591 H6         172.7095  -146.4951  -115.2961 H6            1 RES     
    5592 H6         174.6349  -145.0435  -114.4812 H6            1 RES     
    5593 H6         173.3191  -145.1399  -113.2628 H6            1 RES     
    5594 H6         174.8130  -146.1220  -113.0405 H6            1 RES     
    5595 C0         180.3510  -151.8561  -119.8388 C0            1 RES     
    5596 C0         179.5234  -153.0543  -120.4911 C0            1 RES     
    5597 C0         180.0574  -154.3708  -119.8323 C0            1 RES     
    5598 C0         179.5944  -155.6834  -120.4960 C0            1 RES     
    5599 C0         180.1233  -156.9511  -119.8021 C0            1 RES     
    5600 C0         181.6548  -157.0943  -119.7482 C0            1 RES     
    5601 C0         182.3697  -156.9848  -121.1052 C0            1 RES     
    5602 C0         181.8802  -158.0135  -122.1398 C0            1 RES     
    5603 C0         182.6008  -157.8875  -123.4919 C0            1 RES     
    5604 C0         184.0940  -158.2519  -123.4109 C0            1 RES     
    5605 C0         184.7880  -158.2481  -124.7819 C0            1 RES     
    5606 C0         184.8531  -156.8610  -125.4214 C0            1 RES     
    5607 C0         177.9461  -153.0955  -120.6566 C0            1 RES     
    5608 C0         176.9924  -153.1990  -119.4329 C0            1 RES     
    5609 C0         176.2669  -151.8730  -119.1415 C0            1 RES     
    5610 C0         175.3570  -151.8477  -117.9244 C0            1 RES     
    5611 C0         174.0385  -152.6008  -118.0321 C0            1 RES     
    5612 C0         173.2308  -152.2819  -116.7574 C0            1 RES     
    5613 C0         171.8035  -152.8322  -116.7562 C0            1 RES     
    5614 C0         170.9153  -152.1452  -117.7946 C0            1 RES     
    5615 H6         180.6555  -152.1533  -118.8083 H6            1 RES     
    5616 H6         181.3355  -151.8911  -120.3580 H6            1 RES     
    5617 H6         179.8591  -153.0570  -121.5539 H6            1 RES     
    5618 H6         179.7554  -154.3898  -118.7628 H6            1 RES     
    5619 H6         181.1676  -154.3443  -119.8733 H6            1 RES     
    5620 H6         179.8916  -155.6787  -121.5656 H6            1 RES     
    5621 H6         178.4926  -155.7762  -120.4380 H6            1 RES     
    5622 H6         179.6982  -157.8294  -120.3334 H6            1 RES     
    5623 H6         179.7347  -156.9871  -118.7606 H6            1 RES     
    5624 H6         181.8884  -158.0807  -119.2910 H6            1 RES     
    5625 H6         182.0722  -156.3153  -119.0750 H6            1 RES     
    5626 H6         182.2342  -155.9611  -121.5151 H6            1 RES     
    5627 H6         183.4513  -157.1301  -120.9076 H6            1 RES     
    5628 H6         180.8013  -157.8406  -122.3353 H6            1 RES     
    5629 H6         182.0010  -159.0452  -121.7444 H6            1 RES     
    5630 H6         182.1108  -158.5900  -124.2008 H6            1 RES     
    5631 H6         182.4642  -156.8543  -123.8759 H6            1 RES     
    5632 H6         184.6373  -157.5577  -122.7372 H6            1 RES     
    5633 H6         184.1764  -159.2797  -122.9949 H6            1 RES     
    5634 H6         184.2697  -158.9522  -125.4685 H6            1 RES     
    5635 H6         185.8301  -158.6074  -124.6403 H6            1 RES     
    5636 H6         183.8391  -156.4685  -125.6379 H6            1 RES     
    5637 H6         185.3876  -156.1541  -124.7517 H6            1 RES     
    5638 H6         185.4063  -156.9261  -126.3819 H6            1 RES     
    5639 H6         177.7524  -154.0049  -121.2546 H6            1 RES     
    5640 H6         177.5658  -152.3665  -121.3967 H6            1 RES     
    5641 H6         176.1760  -153.9059  -119.6993 H6            1 RES     
    5642 H6         177.5205  -153.6179  -118.5525 H6            1 RES     
    5643 H6         175.7042  -151.5363  -120.0417 H6            1 RES     
    5644 H6         176.9922  -151.1055  -118.8956 H6            1 RES     
    5645 H6         175.9256  -152.1571  -117.0207 H6            1 RES     
    5646 H6         175.0576  -150.7918  -117.8194 H6            1 RES     
    5647 H6         173.5082  -152.2282  -118.9338 H6            1 RES     
    5648 H6         174.2070  -153.6933  -118.1317 H6            1 RES     
    5649 H6         173.7792  -152.7054  -115.8873 H6            1 RES     
    5650 H6         173.1639  -151.1795  -116.6081 H6            1 RES     
    5651 H6         171.3688  -152.6216  -115.7544 H6            1 RES     
    5652 H6         171.8170  -153.9289  -116.9138 H6            1 RES     
    5653 H6         171.2671  -152.3466  -118.8258 H6            1 RES     
    5654 H6         169.8785  -152.5282  -117.7005 H6            1 RES     
    5655 H6         170.9009  -151.0465  -117.6225 H6            1 RES     
    5656 C0         189.5435  -145.0204  -126.7596 C0            1 RES     
    5657 C1         188.7879  -145.1829  -125.4223 C1            1 RES     
    5658 C1         189.5129  -144.7418  -124.3617 C1            1 RES     
    5659 S2         188.7602  -144.9884  -122.8869 S2            1 RES     
    5660 C1         187.4272  -145.7485  -123.6191 C1            1 RES     
    5661 C1         187.5958  -145.7994  -125.0071 C1            1 RES     
    5662 C1         190.7693  -144.2939  -124.8240 C1            1 RES     
    5663 C1         190.8581  -144.5149  -126.1634 C1            1 RES     
    5664 C1         192.1231  -144.2298  -126.6632 C1            1 RES     
    5665 C1         192.9620  -143.7517  -125.6424 C1            1 RES     
    5666 S2         192.1650  -143.6972  -124.1440 S2            1 RES     
    5667 H3         186.8950  -146.3098  -125.6401 H3            1 RES     
    5668 H3         192.4200  -144.3639  -127.6965 H3            1 RES     
    5669 N4         196.2083  -141.8783  -125.6942 N4            1 RES     
    5670 C1         194.8699  -142.1372  -125.6170 C1            1 RES     
    5671 C1         194.3831  -143.4473  -125.7671 C1            1 RES     
    5672 C1         195.3069  -144.4734  -125.9735 C1            1 RES     
    5673 N4         194.9754  -145.7860  -126.0766 N4            1 RES     
    5674 S2         196.4527  -146.5086  -126.2419 S2            1 RES     
    5675 N4         197.5188  -145.2439  -126.1946 N4            1 RES     
    5676 C1         196.6928  -144.1812  -126.0302 C1            1 RES     
    5677 C1         197.1258  -142.8640  -125.9019 C1            1 RES     
    5678 H5         194.1779  -141.3171  -125.4465 H5            1 RES     
    5679 C0         189.0395  -143.9708  -127.8118 C0            1 RES     
    5680 C0         189.0928  -142.3964  -127.7873 C0            1 RES     
    5681 C0         188.3108  -141.9409  -129.0693 C0            1 RES     
    5682 C0         188.2600  -140.4341  -129.3503 C0            1 RES     
    5683 C0         187.4221  -140.0997  -130.6069 C0            1 RES     
    5684 C0         187.9505  -140.6737  -131.9401 C0            1 RES     
    5685 C0         189.4066  -140.3036  -132.2730 C0            1 RES     
    5686 C0         189.6459  -138.7842  -132.3250 C0            1 RES     
    5687 C0         191.1110  -138.4178  -132.6020 C0            1 RES     
    5688 C0         191.5783  -138.8150  -134.0125 C0            1 RES     
    5689 C0         193.0081  -138.3417  -134.3192 C0            1 RES     
    5690 C0         194.0669  -139.0200  -133.4490 C0            1 RES     
    5691 C0         188.6236  -141.6272  -126.5093 C0            1 RES     
    5692 C0         187.1277  -141.7101  -126.0757 C0            1 RES     
    5693 C0         187.0528  -142.2952  -124.6621 C0            1 RES     
    5694 C0         185.6950  -142.7726  -124.1551 C0            1 RES     
    5695 C0         184.7463  -141.6973  -123.6459 C0            1 RES     
    5696 C0         183.4674  -142.3990  -123.1426 C0            1 RES     
    5697 C0         182.4847  -141.4745  -122.4203 C0            1 RES     
    5698 C0         183.0315  -140.9802  -121.0794 C0            1 RES     
    5699 H6         188.0168  -144.1901  -127.9842 H6            1 RES     
    5700 H6         189.5959  -144.2276  -128.7414 H6            1 RES     
    5701 H6         190.1623  -142.1132  -127.9076 H6            1 RES     
    5702 H6         187.2596  -142.2973  -129.0032 H6            1 RES     
    5703 H6         188.7789  -142.4382  -129.9457 H6            1 RES     
    5704 H6         189.2880  -140.0293  -129.4463 H6            1 RES     
    5705 H6         187.7613  -139.9214  -128.5032 H6            1 RES     
    5706 H6         187.3560  -138.9955  -130.6935 H6            1 RES     
    5707 H6         186.3818  -140.4668  -130.4627 H6            1 RES     
    5708 H6         187.2889  -140.3105  -132.7580 H6            1 RES     
    5709 H6         187.8687  -141.7816  -131.9293 H6            1 RES     
    5710 H6         190.0817  -140.7579  -131.5174 H6            1 RES     
    5711 H6         189.6455  -140.7581  -133.2569 H6            1 RES     
    5712 H6         189.4005  -138.3490  -131.3349 H6            1 RES     
    5713 H6         188.9849  -138.3153  -133.0865 H6            1 RES     
    5714 H6         191.2047  -137.3142  -132.5046 H6            1 RES     
    5715 H6         191.7468  -138.8910  -131.8244 H6            1 RES     
    5716 H6         191.5278  -139.9146  -134.1532 H6            1 RES     
    5717 H6         190.8980  -138.3353  -134.7495 H6            1 RES     
    5718 H6         193.0748  -137.2386  -134.1964 H6            1 RES     
    5719 H6         193.2322  -138.5849  -135.3803 H6            1 RES     
    5720 H6         193.9293  -138.7717  -132.3773 H6            1 RES     
    5721 H6         194.0223  -140.1220  -133.5808 H6            1 RES     
    5722 H6         195.0742  -138.6663  -133.7535 H6            1 RES     
    5723 H6         188.8525  -140.5508  -126.6625 H6            1 RES     
    5724 H6         189.3014  -141.8992  -125.6720 H6            1 RES     
    5725 H6         186.6650  -140.6979  -126.0576 H6            1 RES     
    5726 H6         186.5579  -142.3378  -126.7906 H6            1 RES     
    5727 H6         187.5653  -141.6553  -123.9133 H6            1 RES     
    5728 H6         187.6114  -143.2034  -124.7432 H6            1 RES     
    5729 H6         185.2196  -143.3827  -124.9270 H6            1 RES     
    5730 H6         185.9018  -143.4423  -123.2895 H6            1 RES     
    5731 H6         185.2622  -141.1713  -122.8148 H6            1 RES     
    5732 H6         184.4961  -140.9656  -124.4429 H6            1 RES     
    5733 H6         182.9550  -142.8511  -124.0220 H6            1 RES     
    5734 H6         183.7266  -143.2266  -122.4437 H6            1 RES     
    5735 H6         181.5641  -142.0611  -122.2066 H6            1 RES     
    5736 H6         182.2122  -140.6175  -123.0715 H6            1 RES     
    5737 H6         183.9329  -140.3507  -121.2151 H6            1 RES     
    5738 H6         182.2588  -140.3732  -120.5654 H6            1 RES     
    5739 H6         183.2877  -141.8457  -120.4283 H6            1 RES     
    5740 C0         189.6286  -146.4774  -127.3641 C0            1 RES     
    5741 C0         188.8803  -146.9837  -128.6793 C0            1 RES     
    5742 C0         188.8068  -148.5444  -128.5732 C0            1 RES     
    5743 C0         188.3631  -149.2793  -129.8543 C0            1 RES     
    5744 C0         188.2821  -150.8080  -129.6976 C0            1 RES     
    5745 C0         189.5965  -151.5114  -129.3146 C0            1 RES     
    5746 C0         190.7913  -151.2096  -130.2343 C0            1 RES     
    5747 C0         190.5324  -151.5611  -131.7099 C0            1 RES     
    5748 C0         191.7341  -151.2488  -132.6163 C0            1 RES     
    5749 C0         192.9547  -152.1386  -132.3204 C0            1 RES     
    5750 C0         194.1130  -151.9155  -133.3052 C0            1 RES     
    5751 C0         194.7293  -150.5200  -133.2057 C0            1 RES     
    5752 C0         187.5280  -146.3843  -129.2529 C0            1 RES     
    5753 C0         186.1735  -146.5474  -128.5068 C0            1 RES     
    5754 C0         185.7053  -145.2369  -127.8489 C0            1 RES     
    5755 C0         184.4211  -145.3024  -127.0388 C0            1 RES     
    5756 C0         183.1194  -145.4328  -127.8172 C0            1 RES     
    5757 C0         181.9688  -145.3022  -126.7983 C0            1 RES     
    5758 C0         180.5722  -145.2550  -127.4208 C0            1 RES     
    5759 C0         180.3390  -143.9771  -128.2280 C0            1 RES     
    5760 H6         189.4302  -147.2020  -126.5404 H6            1 RES     
    5761 H6         190.7034  -146.6888  -127.5642 H6            1 RES     
    5762 H6         189.5964  -146.7416  -129.4983 H6            1 RES     
    5763 H6         188.1134  -148.8200  -127.7495 H6            1 RES     
    5764 H6         189.8199  -148.9141  -128.3050 H6            1 RES     
    5765 H6         189.0491  -149.0142  -130.6859 H6            1 RES     
    5766 H6         187.3362  -148.9759  -130.1359 H6            1 RES     
    5767 H6         187.9165  -151.2273  -130.6593 H6            1 RES     
    5768 H6         187.5185  -151.0569  -128.9282 H6            1 RES     
    5769 H6         189.4071  -152.6072  -129.3100 H6            1 RES     
    5770 H6         189.8775  -151.2242  -128.2790 H6            1 RES     
    5771 H6         191.0580  -150.1339  -130.1560 H6            1 RES     
    5772 H6         191.6472  -151.7996  -129.8478 H6            1 RES     
    5773 H6         189.6842  -150.9489  -132.0813 H6            1 RES     
    5774 H6         190.2566  -152.6334  -131.8079 H6            1 RES     
    5775 H6         191.4192  -151.4310  -133.6669 H6            1 RES     
    5776 H6         191.9918  -150.1734  -132.5120 H6            1 RES     
    5777 H6         193.3291  -151.9709  -131.2896 H6            1 RES     
    5778 H6         192.6373  -153.2005  -132.4092 H6            1 RES     
    5779 H6         193.7637  -152.0965  -134.3449 H6            1 RES     
    5780 H6         194.9081  -152.6567  -133.0736 H6            1 RES     
    5781 H6         193.9960  -149.7346  -133.4786 H6            1 RES     
    5782 H6         195.1003  -150.3368  -132.1747 H6            1 RES     
    5783 H6         195.5857  -150.4469  -133.9086 H6            1 RES     
    5784 H6         187.3882  -146.8922  -130.2248 H6            1 RES     
    5785 H6         187.6404  -145.3594  -129.6536 H6            1 RES     
    5786 H6         185.3926  -146.7668  -129.2679 H6            1 RES     
    5787 H6         186.2067  -147.4071  -127.8074 H6            1 RES     
    5788 H6         185.6307  -144.4286  -128.6115 H6            1 RES     
    5789 H6         186.4263  -144.9246  -127.1018 H6            1 RES     
    5790 H6         184.5055  -146.0906  -126.2593 H6            1 RES     
    5791 H6         184.3465  -144.3170  -126.5501 H6            1 RES     
    5792 H6         183.0823  -144.6048  -128.5563 H6            1 RES     
    5793 H6         183.0669  -146.4039  -128.3521 H6            1 RES     
    5794 H6         182.0232  -146.1698  -126.1044 H6            1 RES     
    5795 H6         182.0947  -144.3770  -126.1899 H6            1 RES     
    5796 H6         179.8378  -145.2602  -126.5856 H6            1 RES     
    5797 H6         180.4031  -146.1529  -128.0478 H6            1 RES     
    5798 H6         181.0130  -143.9234  -129.1058 H6            1 RES     
    5799 H6         179.2916  -143.9607  -128.5931 H6            1 RES     
    5800 H6         180.5020  -143.0822  -127.5880 H6            1 RES     
    5801 C0         202.0650  -141.5472  -127.7588 C0            1 RES     
    5802 C1         200.8298  -141.8732  -126.8908 C1            1 RES     
    5803 C1         201.1585  -142.1245  -125.5970 C1            1 RES     
    5804 S2         199.8533  -142.5717  -124.6489 S2            1 RES     
    5805 C1         198.7821  -142.4867  -125.9666 C1            1 RES     
    5806 C1         199.4660  -142.1126  -127.1285 C1            1 RES     
    5807 C1         202.5607  -142.0380  -125.4587 C1            1 RES     
    5808 C1         203.1167  -141.7983  -126.6771 C1            1 RES     
    5809 C1         204.5052  -141.8427  -126.6422 C1            1 RES     
    5810 C1         204.9595  -142.0900  -125.3358 C1            1 RES     
    5811 S2         203.6722  -142.2690  -124.2430 S2            1 RES     
    5812 H3         198.9757  -142.0779  -128.0828 H3            1 RES     
    5813 H3         205.1460  -141.7100  -127.5057 H3            1 RES     
    5814 N4         208.2929  -141.6430  -123.6807 N4            1 RES     
    5815 C1         207.0105  -141.4031  -124.0831 C1            1 RES     
    5816 C1         206.3445  -142.3045  -124.9315 C1            1 RES     
    5817 C1         207.0229  -143.4580  -125.3293 C1            1 RES     
    5818 N4         206.4766  -144.4348  -126.0980 N4            1 RES     
    5819 S2         207.7001  -145.5431  -126.1782 S2            1 RES     
    5820 N4         208.9135  -144.8575  -125.2860 N4            1 RES     
    5821 C1         208.3471  -143.6937  -124.8818 C1            1 RES     
    5822 C1         208.9751  -142.7589  -124.0630 C1            1 RES     
    5823 H5         206.5075  -140.5000  -123.7483 H5            1 RES     
    5824 C0         202.2605  -140.0921  -128.3130 C0            1 RES     
    5825 C0         202.6473  -138.7601  -127.5659 C0            1 RES     
    5826 C0         202.5531  -137.6369  -128.6576 C0            1 RES     
    5827 C0         202.9519  -136.2194  -128.2288 C0            1 RES     
    5828 C0         202.7710  -135.1891  -129.3684 C0            1 RES     
    5829 C0         203.6386  -135.4176  -130.6258 C0            1 RES     
    5830 C0         205.1511  -135.5163  -130.3601 C0            1 RES     
    5831 C0         205.7218  -134.2734  -129.6542 C0            1 RES     
    5832 C0         207.2196  -134.3979  -129.3402 C0            1 RES     
    5833 C0         208.1023  -134.4245  -130.5995 C0            1 RES     
    5834 C0         209.6039  -134.4334  -130.2717 C0            1 RES     
    5835 C0         210.0573  -135.7081  -129.5591 C0            1 RES     
    5836 C0         201.8974  -138.3656  -126.2517 C0            1 RES     
    5837 C0         200.3734  -138.0391  -126.3121 C0            1 RES     
    5838 C0         199.6223  -139.0059  -125.3916 C0            1 RES     
    5839 C0         198.1054  -139.0961  -125.5316 C0            1 RES     
    5840 C0         197.2969  -137.9957  -124.8600 C0            1 RES     
    5841 C0         195.8023  -138.3073  -125.0840 C0            1 RES     
    5842 C0         194.8464  -137.3985  -124.3079 C0            1 RES     
    5843 C0         194.9179  -137.6354  -122.7979 C0            1 RES     
    5844 H6         201.3665  -139.8473  -128.8274 H6            1 RES     
    5845 H6         203.0651  -140.1964  -129.0755 H6            1 RES     
    5846 H6         203.7120  -138.8656  -127.2597 H6            1 RES     
    5847 H6         201.5097  -137.5824  -129.0383 H6            1 RES     
    5848 H6         203.2047  -137.9349  -129.5068 H6            1 RES     
    5849 H6         203.9969  -136.2132  -127.8577 H6            1 RES     
    5850 H6         202.2878  -135.8867  -127.4056 H6            1 RES     
    5851 H6         202.9906  -134.1810  -128.9600 H6            1 RES     
    5852 H6         201.7044  -135.1750  -129.6845 H6            1 RES     
    5853 H6         203.4494  -134.5787  -131.3321 H6            1 RES     
    5854 H6         203.3159  -136.3484  -131.1393 H6            1 RES     
    5855 H6         205.3567  -136.4173  -129.7445 H6            1 RES     
    5856 H6         205.6498  -135.6561  -131.3417 H6            1 RES     
    5857 H6         205.2107  -134.1499  -128.6778 H6            1 RES     
    5858 H6         205.5344  -133.3629  -130.2645 H6            1 RES     
    5859 H6         207.5095  -133.5125  -128.7333 H6            1 RES     
    5860 H6         207.3773  -135.3084  -128.7247 H6            1 RES     
    5861 H6         207.8688  -135.3072  -131.2302 H6            1 RES     
    5862 H6         207.8903  -133.5060  -131.1891 H6            1 RES     
    5863 H6         209.8595  -133.5474  -129.6505 H6            1 RES     
    5864 H6         210.1663  -134.3587  -131.2274 H6            1 RES     
    5865 H6         209.5690  -135.8137  -128.5694 H6            1 RES     
    5866 H6         209.8251  -136.5981  -130.1817 H6            1 RES     
    5867 H6         211.1544  -135.6664  -129.3944 H6            1 RES     
    5868 H6         202.4003  -137.4666  -125.8353 H6            1 RES     
    5869 H6         202.1136  -139.1383  -125.4832 H6            1 RES     
    5870 H6         200.1775  -137.0014  -125.9601 H6            1 RES     
    5871 H6         200.0062  -138.1253  -127.3549 H6            1 RES     
    5872 H6         199.9278  -138.8997  -124.3293 H6            1 RES     
    5873 H6         199.9515  -139.9670  -125.7250 H6            1 RES     
    5874 H6         197.8487  -139.1820  -126.5903 H6            1 RES     
    5875 H6         197.8020  -140.0497  -125.0425 H6            1 RES     
    5876 H6         197.5480  -138.0176  -123.7783 H6            1 RES     
    5877 H6         197.5484  -136.9964  -125.2739 H6            1 RES     
    5878 H6         195.5897  -138.2061  -126.1725 H6            1 RES     
    5879 H6         195.5760  -139.3589  -124.7946 H6            1 RES     
    5880 H6         193.8107  -137.6418  -124.6326 H6            1 RES     
    5881 H6         195.0485  -136.3331  -124.5467 H6            1 RES     
    5882 H6         195.9154  -137.3749  -122.3923 H6            1 RES     
    5883 H6         194.1609  -137.0056  -122.2879 H6            1 RES     
    5884 H6         194.6994  -138.7020  -122.5673 H6            1 RES     
    5885 C0         202.0554  -142.6280  -128.9109 C0            1 RES     
    5886 C0         201.7912  -142.3366  -130.4573 C0            1 RES     
    5887 C0         201.3382  -143.6945  -131.0923 C0            1 RES     
    5888 C0         201.2820  -143.7238  -132.6330 C0            1 RES     
    5889 C0         200.8095  -145.0689  -133.2124 C0            1 RES     
    5890 C0         201.6767  -146.2905  -132.8593 C0            1 RES     
    5891 C0         203.1711  -146.1495  -133.1932 C0            1 RES     
    5892 C0         203.4411  -145.8481  -134.6779 C0            1 RES     
    5893 C0         204.9388  -145.7052  -134.9939 C0            1 RES     
    5894 C0         205.7151  -147.0233  -134.8240 C0            1 RES     
    5895 C0         207.1850  -146.9145  -135.2585 C0            1 RES     
    5896 C0         208.0053  -145.9692  -134.3807 C0            1 RES     
    5897 C0         200.9418  -141.1250  -131.0298 C0            1 RES     
    5898 C0         199.4038  -141.0276  -130.8230 C0            1 RES     
    5899 C0         199.0180  -139.9515  -129.7922 C0            1 RES     
    5900 C0         197.5392  -139.8177  -129.4683 C0            1 RES     
    5901 C0         196.6537  -139.1844  -130.5322 C0            1 RES     
    5902 C0         195.2557  -139.0022  -129.9065 C0            1 RES     
    5903 C0         194.2636  -138.2346  -130.7821 C0            1 RES     
    5904 C0         194.6552  -136.7661  -130.9532 C0            1 RES     
    5905 H6         201.3945  -143.4661  -128.5887 H6            1 RES     
    5906 H6         203.0466  -143.1353  -128.8952 H6            1 RES     
    5907 H6         202.8055  -142.1066  -130.8580 H6            1 RES     
    5908 H6         200.3349  -143.9633  -130.6967 H6            1 RES     
    5909 H6         202.0555  -144.4777  -130.7651 H6            1 RES     
    5910 H6         202.2794  -143.4587  -133.0420 H6            1 RES     
    5911 H6         200.5429  -142.9881  -133.0052 H6            1 RES     
    5912 H6         200.7675  -144.9646  -134.3176 H6            1 RES     
    5913 H6         199.7707  -145.2702  -132.8694 H6            1 RES     
    5914 H6         201.2631  -147.1693  -133.4008 H6            1 RES     
    5915 H6         201.5849  -146.5034  -131.7729 H6            1 RES     
    5916 H6         203.6168  -145.3451  -132.5698 H6            1 RES     
    5917 H6         203.6528  -147.1064  -132.9062 H6            1 RES     
    5918 H6         202.9653  -144.8801  -134.9400 H6            1 RES     
    5919 H6         202.9957  -146.6395  -135.3189 H6            1 RES     
    5920 H6         205.0295  -145.3840  -136.0544 H6            1 RES     
    5921 H6         205.3661  -144.9067  -134.3508 H6            1 RES     
    5922 H6         205.6821  -147.3721  -133.7713 H6            1 RES     
    5923 H6         205.2313  -147.7937  -135.4634 H6            1 RES     
    5924 H6         207.2411  -146.5833  -136.3183 H6            1 RES     
    5925 H6         207.6397  -147.9261  -135.1879 H6            1 RES     
    5926 H6         207.6318  -144.9277  -134.4504 H6            1 RES     
    5927 H6         207.9726  -146.3033  -133.3218 H6            1 RES     
    5928 H6         209.0618  -145.9767  -134.7221 H6            1 RES     
    5929 H6         201.0859  -141.1765  -132.1246 H6            1 RES     
    5930 H6         201.4265  -140.1422  -130.8781 H6            1 RES     
    5931 H6         198.9567  -140.6679  -131.7759 H6            1 RES     
    5932 H6         198.9685  -142.0243  -130.6071 H6            1 RES     
    5933 H6         199.4297  -138.9623  -130.0960 H6            1 RES     
    5934 H6         199.4377  -140.2042  -128.8250 H6            1 RES     
    5935 H6         197.1340  -140.7990  -129.1383 H6            1 RES     
    5936 H6         197.4991  -139.1081  -128.6254 H6            1 RES     
    5937 H6         197.0940  -138.1999  -130.7973 H6            1 RES     
    5938 H6         196.6015  -139.8190  -131.4413 H6            1 RES     
    5939 H6         194.8397  -140.0115  -129.6933 H6            1 RES     
    5940 H6         195.3343  -138.4595  -128.9363 H6            1 RES     
    5941 H6         193.2791  -138.2588  -130.2653 H6            1 RES     
    5942 H6         194.1597  -138.7315  -131.7671 H6            1 RES     
    5943 H6         195.6133  -136.6632  -131.5003 H6            1 RES     
    5944 H6         193.8671  -136.2420  -131.5317 H6            1 RES     
    5945 H6         194.7479  -136.2741  -129.9601 H6            1 RES     
    5946 C0         214.4048  -142.7888  -123.7541 C0            1 RES     
    5947 C1         212.8892  -142.9180  -123.4858 C1            1 RES     
    5948 C1         212.6194  -143.7029  -122.4105 C1            1 RES     
    5949 S2         210.9831  -143.9388  -122.1472 S2            1 RES     
    5950 C1         210.5627  -143.0174  -123.5129 C1            1 RES     
    5951 C1         211.7120  -142.5430  -124.1545 C1            1 RES     
    5952 C1         213.8361  -144.1897  -121.8857 C1            1 RES     
    5953 C1         214.8636  -143.7651  -122.6698 C1            1 RES     
    5954 C1         216.0796  -144.3242  -122.2959 C1            1 RES     
    5955 C1         215.9178  -145.1560  -121.1750 C1            1 RES     
    5956 S2         214.3001  -145.2168  -120.6624 S2            1 RES     
    5957 H3         211.6564  -142.0034  -125.0808 H3            1 RES     
    5958 H3         217.0199  -144.1457  -122.8037 H3            1 RES     
    5959 N4         218.3432  -146.5633  -118.6876 N4            1 RES     
    5960 C1         217.4094  -145.7470  -119.2585 C1            1 RES     
    5961 C1         216.9480  -145.9885  -120.5641 C1            1 RES     
    5962 C1         217.4542  -147.0958  -121.2471 C1            1 RES     
    5963 N4         217.0517  -147.4737  -122.4875 N4            1 RES     
    5964 S2         217.9299  -148.8517  -122.7364 S2            1 RES     
    5965 N4         218.8149  -149.0124  -121.3474 N4            1 RES     
    5966 C1         218.4085  -147.9393  -120.6249 C1            1 RES     
    5967 C1         218.8550  -147.6450  -119.3393 C1            1 RES     
    5968 H5         217.0291  -144.8984  -118.6965 H5            1 RES     
    5969 C0         215.1191  -141.4118  -123.5169 C0            1 RES     
    5970 C0         215.4664  -140.6612  -122.1760 C0            1 RES     
    5971 C0         216.0596  -139.2790  -122.6231 C0            1 RES     
    5972 C0         216.5613  -138.3488  -121.5117 C0            1 RES     
    5973 C0         217.0753  -136.9985  -122.0643 C0            1 RES     
    5974 C0         218.2926  -137.0790  -123.0118 C0            1 RES     
    5975 C0         219.5168  -137.8102  -122.4332 C0            1 RES     
    5976 C0         220.0246  -137.1897  -121.1195 C0            1 RES     
    5977 C0         221.2109  -137.9546  -120.5152 C0            1 RES     
    5978 C0         222.4871  -137.8655  -121.3690 C0            1 RES     
    5979 C0         223.6970  -138.5366  -120.6998 C0            1 RES     
    5980 C0         223.5398  -140.0503  -120.5501 C0            1 RES     
    5981 C0         214.3687  -140.5001  -121.0741 C0            1 RES     
    5982 C0         213.1042  -139.6389  -121.3777 C0            1 RES     
    5983 C0         211.8583  -140.5171  -121.2275 C0            1 RES     
    5984 C0         210.5391  -139.9909  -121.7856 C0            1 RES     
    5985 C0         209.7976  -138.9763  -120.9275 C0            1 RES     
    5986 C0         208.4822  -138.6205  -121.6515 C0            1 RES     
    5987 C0         207.5257  -137.7535  -120.8296 C0            1 RES     
    5988 C0         206.9446  -138.5065  -119.6310 C0            1 RES     
    5989 H6         214.5772  -140.6950  -124.0792 H6            1 RES     
    5990 H6         216.1135  -141.5331  -124.0030 H6            1 RES     
    5991 H6         216.2734  -141.2483  -121.6834 H6            1 RES     
    5992 H6         215.2896  -138.7180  -123.1967 H6            1 RES     
    5993 H6         216.9084  -139.4815  -123.3108 H6            1 RES     
    5994 H6         217.3500  -138.8546  -120.9184 H6            1 RES     
    5995 H6         215.7192  -138.1028  -120.8338 H6            1 RES     
    5996 H6         217.3344  -136.3494  -121.2025 H6            1 RES     
    5997 H6         216.2502  -136.4863  -122.6072 H6            1 RES     
    5998 H6         218.5867  -136.0408  -123.2840 H6            1 RES     
    5999 H6         217.9997  -137.5874  -123.9553 H6            1 RES     
    6000 H6         219.2591  -138.8767  -122.2622 H6            1 RES     
    6001 H6         220.3160  -137.7743  -123.2023 H6            1 RES     
    6002 H6         219.2125  -137.2334  -120.3655 H6            1 RES     
    6003 H6         220.2985  -136.1235  -121.2769 H6            1 RES     
    6004 H6         221.4277  -137.5058  -119.5213 H6            1 RES     
    6005 H6         220.9084  -139.0117  -120.3612 H6            1 RES     
    6006 H6         222.3305  -138.3244  -122.3672 H6            1 RES     
    6007 H6         222.7327  -136.7905  -121.5117 H6            1 RES     
    6008 H6         223.8778  -138.0798  -119.7023 H6            1 RES     
    6009 H6         224.5907  -138.3478  -121.3330 H6            1 RES     
    6010 H6         222.6921  -140.3049  -119.8824 H6            1 RES     
    6011 H6         223.3796  -140.5188  -121.5444 H6            1 RES     
    6012 H6         224.4638  -140.4731  -120.1030 H6            1 RES     
    6013 H6         214.8534  -140.0518  -120.1805 H6            1 RES     
    6014 H6         214.0890  -141.5126  -120.7120 H6            1 RES     
    6015 H6         213.0211  -138.7924  -120.6596 H6            1 RES     
    6016 H6         213.1665  -139.2183  -122.4019 H6            1 RES     
    6017 H6         211.7378  -140.9046  -120.1940 H6            1 RES     
    6018 H6         212.0702  -141.3526  -121.8602 H6            1 RES     
    6019 H6         210.7063  -139.6050  -122.7942 H6            1 RES     
    6020 H6         209.8651  -140.8726  -121.8798 H6            1 RES     
    6021 H6         209.5925  -139.4613  -119.9496 H6            1 RES     
    6022 H6         210.4060  -138.0621  -120.7623 H6            1 RES     
    6023 H6         208.7420  -138.0788  -122.5893 H6            1 RES     
    6024 H6         207.9337  -139.5460  -121.9400 H6            1 RES     
    6025 H6         206.6747  -137.4720  -121.4882 H6            1 RES     
    6026 H6         208.0359  -136.8247  -120.4982 H6            1 RES     
    6027 H6         207.7336  -138.7871  -118.9057 H6            1 RES     
    6028 H6         206.2082  -137.8615  -119.1100 H6            1 RES     
    6029 H6         206.4227  -139.4276  -119.9744 H6            1 RES     
    6030 C0         214.6088  -143.3206  -125.2276 C0            1 RES     
    6031 C0         215.0443  -142.4374  -126.4832 C0            1 RES     
    6032 C0         214.5882  -143.2249  -127.7575 C0            1 RES     
    6033 C0         215.1360  -142.6969  -129.0988 C0            1 RES     
    6034 C0         214.6436  -143.4855  -130.3251 C0            1 RES     
    6035 C0         215.0086  -144.9805  -130.3493 C0            1 RES     
    6036 C0         216.5049  -145.2908  -130.1780 C0            1 RES     
    6037 C0         217.3953  -144.6160  -131.2363 C0            1 RES     
    6038 C0         218.8879  -144.9319  -131.0481 C0            1 RES     
    6039 C0         219.2223  -146.4138  -131.2960 C0            1 RES     
    6040 C0         220.7291  -146.7080  -131.2315 C0            1 RES     
    6041 C0         221.3264  -146.4955  -129.8404 C0            1 RES     
    6042 C0         214.7791  -140.8817  -126.6458 C0            1 RES     
    6043 C0         213.3465  -140.3055  -126.8289 C0            1 RES     
    6044 C0         212.8361  -139.5910  -125.5647 C0            1 RES     
    6045 C0         211.4184  -139.0457  -125.6161 C0            1 RES     
    6046 C0         211.1857  -137.8063  -126.4687 C0            1 RES     
    6047 C0         209.7325  -137.3531  -126.2197 C0            1 RES     
    6048 C0         209.3605  -136.0238  -126.8791 C0            1 RES     
    6049 C0         210.1026  -134.8396  -126.2578 C0            1 RES     
    6050 H6         213.7067  -143.9139  -125.5055 H6            1 RES     
    6051 H6         215.3751  -144.1274  -125.1837 H6            1 RES     
    6052 H6         216.1579  -142.4718  -126.4545 H6            1 RES     
    6053 H6         213.4778  -143.2263  -127.8052 H6            1 RES     
    6054 H6         214.9266  -144.2774  -127.6448 H6            1 RES     
    6055 H6         216.2457  -142.6919  -129.0657 H6            1 RES     
    6056 H6         214.7853  -141.6620  -129.2771 H6            1 RES     
    6057 H6         215.0629  -142.9979  -131.2310 H6            1 RES     
    6058 H6         213.5371  -143.3974  -130.3964 H6            1 RES     
    6059 H6         214.6571  -145.4009  -131.3170 H6            1 RES     
    6060 H6         214.4532  -145.5065  -129.5437 H6            1 RES     
    6061 H6         216.8364  -144.9747  -129.1659 H6            1 RES     
    6062 H6         216.6103  -146.3931  -130.2400 H6            1 RES     
    6063 H6         217.2878  -143.5149  -131.1467 H6            1 RES     
    6064 H6         217.0739  -144.9148  -132.2576 H6            1 RES     
    6065 H6         219.4562  -144.3210  -131.7829 H6            1 RES     
    6066 H6         219.1940  -144.6211  -130.0267 H6            1 RES     
    6067 H6         218.7024  -147.0669  -130.5652 H6            1 RES     
    6068 H6         218.8706  -146.6809  -132.3164 H6            1 RES     
    6069 H6         221.2683  -146.0761  -131.9702 H6            1 RES     
    6070 H6         220.8832  -147.7729  -131.5096 H6            1 RES     
    6071 H6         221.2510  -145.4349  -129.5266 H6            1 RES     
    6072 H6         220.8077  -147.1382  -129.0976 H6            1 RES     
    6073 H6         222.4019  -146.7710  -129.8576 H6            1 RES     
    6074 H6         215.3259  -140.6004  -127.5644 H6            1 RES     
    6075 H6         215.3700  -140.2627  -125.9447 H6            1 RES     
    6076 H6         213.4009  -139.5016  -127.5957 H6            1 RES     
    6077 H6         212.6524  -141.0817  -127.2101 H6            1 RES     
    6078 H6         213.5420  -138.7823  -125.2682 H6            1 RES     
    6079 H6         212.7753  -140.2975  -124.7445 H6            1 RES     
    6080 H6         210.7098  -139.8590  -125.8850 H6            1 RES     
    6081 H6         211.2092  -138.7094  -124.5872 H6            1 RES     
    6082 H6         211.9009  -137.0256  -126.1338 H6            1 RES     
    6083 H6         211.3552  -138.0211  -127.5443 H6            1 RES     
    6084 H6         209.0539  -138.1463  -126.6038 H6            1 RES     
    6085 H6         209.5423  -137.2486  -125.1266 H6            1 RES     
    6086 H6         208.2735  -135.8628  -126.7078 H6            1 RES     
    6087 H6         209.5442  -136.0744  -127.9706 H6            1 RES     
    6088 H6         211.1954  -134.9125  -126.4262 H6            1 RES     
    6089 H6         209.7421  -133.8981  -126.7205 H6            1 RES     
    6090 H6         209.9047  -134.7919  -125.1644 H6            1 RES     
    6091 C0         223.5744  -149.7669  -117.6652 C0            1 RES     
    6092 C1         222.0875  -149.4160  -117.8925 C1            1 RES     
    6093 C1         221.2508  -150.3670  -117.4019 C1            1 RES     
    6094 S2         219.6345  -150.0623  -117.7134 S2            1 RES     
    6095 C1         219.9992  -148.6401  -118.5709 C1            1 RES     
    6096 C1         221.3821  -148.4295  -118.6016 C1            1 RES     
    6097 C1         222.0232  -151.4147  -116.8555 C1            1 RES     
    6098 C1         223.3422  -151.1531  -117.0623 C1            1 RES     
    6099 C1         224.1572  -152.2109  -116.6774 C1            1 RES     
    6100 C1         223.3887  -153.2577  -116.1409 C1            1 RES     
    6101 S2         221.7299  -152.8949  -116.1558 S2            1 RES     
    6102 H3         221.8155  -147.6227  -119.1617 H3            1 RES     
    6103 H3         225.2354  -152.2256  -116.7829 H3            1 RES     
    6104 N4         224.2661  -156.2220  -114.0211 N4            1 RES     
    6105 C1         223.8373  -154.9774  -114.3834 C1            1 RES     
    6106 C1         223.8842  -154.5655  -115.7265 C1            1 RES     
    6107 C1         224.3587  -155.4714  -116.6768 C1            1 RES     
    6108 N4         224.4024  -155.2215  -118.0107 N4            1 RES     
    6109 S2         224.9787  -156.6476  -118.6158 S2            1 RES     
    6110 N4         225.1882  -157.5909  -117.2724 N4            1 RES     
    6111 C1         224.7797  -156.7648  -116.2778 C1            1 RES     
    6112 C1         224.7390  -157.1186  -114.9317 C1            1 RES     
    6113 H5         223.4653  -154.2993  -113.6203 H5            1 RES     
    6114 C0         224.4241  -148.9210  -116.6525 C0            1 RES     
    6115 C0         224.3742  -148.8635  -115.0790 C0            1 RES     
    6116 C0         225.3855  -147.7321  -114.6791 C0            1 RES     
    6117 C0         225.6034  -147.4967  -113.1793 C0            1 RES     
    6118 C0         226.5782  -146.3275  -112.9046 C0            1 RES     
    6119 C0         228.0189  -146.5154  -113.4292 C0            1 RES     
    6120 C0         228.7227  -147.7956  -112.9457 C0            1 RES     
    6121 C0         228.7980  -147.8998  -111.4121 C0            1 RES     
    6122 C0         229.4505  -149.2041  -110.9318 C0            1 RES     
    6123 C0         230.9445  -149.2995  -111.2844 C0            1 RES     
    6124 C0         231.6134  -150.5539  -110.7002 C0            1 RES     
    6125 C0         231.0789  -151.8557  -111.2987 C0            1 RES     
    6126 C0         222.9977  -148.7031  -114.3548 C0            1 RES     
    6127 C0         222.1788  -147.3910  -114.5557 C0            1 RES     
    6128 C0         220.8130  -147.7451  -115.1519 C0            1 RES     
    6129 C0         219.9709  -146.6142  -115.7356 C0            1 RES     
    6130 C0         219.1970  -145.7629  -114.7397 C0            1 RES     
    6131 C0         218.3856  -144.7232  -115.5410 C0            1 RES     
    6132 C0         217.4013  -143.9080  -114.6991 C0            1 RES     
    6133 C0         216.2454  -144.7600  -114.1706 C0            1 RES     
    6134 H6         224.3197  -147.9088  -116.9497 H6            1 RES     
    6135 H6         225.4756  -149.2220  -116.8608 H6            1 RES     
    6136 H6         224.7713  -149.8366  -114.7130 H6            1 RES     
    6137 H6         225.0474  -146.7672  -115.1162 H6            1 RES     
    6138 H6         226.3682  -147.9803  -115.1341 H6            1 RES     
    6139 H6         225.9626  -148.4277  -112.6955 H6            1 RES     
    6140 H6         224.6401  -147.2101  -112.7111 H6            1 RES     
    6141 H6         226.6153  -146.1596  -111.8084 H6            1 RES     
    6142 H6         226.1682  -145.3951  -113.3520 H6            1 RES     
    6143 H6         228.6182  -145.6322  -113.1144 H6            1 RES     
    6144 H6         228.0150  -146.5210  -114.5402 H6            1 RES     
    6145 H6         228.1892  -148.6816  -113.3501 H6            1 RES     
    6146 H6         229.7459  -147.7915  -113.3753 H6            1 RES     
    6147 H6         227.7675  -147.9008  -111.0022 H6            1 RES     
    6148 H6         229.3406  -147.0247  -110.9920 H6            1 RES     
    6149 H6         229.3535  -149.2396  -109.8247 H6            1 RES     
    6150 H6         228.8859  -150.0597  -111.3581 H6            1 RES     
    6151 H6         231.0948  -149.2934  -112.3839 H6            1 RES     
    6152 H6         231.4580  -148.4116  -110.8552 H6            1 RES     
    6153 H6         231.4846  -150.5703  -109.5959 H6            1 RES     
    6154 H6         232.7015  -150.4993  -110.9200 H6            1 RES     
    6155 H6         230.0038  -151.9959  -111.0671 H6            1 RES     
    6156 H6         231.2222  -151.8579  -112.4001 H6            1 RES     
    6157 H6         231.6347  -152.7140  -110.8665 H6            1 RES     
    6158 H6         223.1791  -148.8024  -113.2632 H6            1 RES     
    6159 H6         222.3816  -149.6005  -114.5776 H6            1 RES     
    6160 H6         222.0104  -146.8775  -113.5825 H6            1 RES     
    6161 H6         222.7294  -146.6963  -115.2220 H6            1 RES     
    6162 H6         220.2140  -148.3930  -114.4779 H6            1 RES     
    6163 H6         221.0653  -148.3257  -116.0136 H6            1 RES     
    6164 H6         220.6014  -145.9934  -116.3769 H6            1 RES     
    6165 H6         219.2108  -147.0964  -116.3916 H6            1 RES     
    6166 H6         218.5227  -146.4447  -114.1794 H6            1 RES     
    6167 H6         219.8778  -145.2531  -114.0257 H6            1 RES     
    6168 H6         219.1055  -144.0263  -116.0271 H6            1 RES     
    6169 H6         217.8041  -145.2221  -116.3495 H6            1 RES     
    6170 H6         216.9624  -143.1254  -115.3563 H6            1 RES     
    6171 H6         217.9325  -143.4072  -113.8626 H6            1 RES     
    6172 H6         216.6030  -145.5423  -113.4724 H6            1 RES     
    6173 H6         215.5265  -144.1132  -113.6279 H6            1 RES     
    6174 H6         215.7102  -145.2458  -115.0169 H6            1 RES     
    6175 C0         224.2169  -149.7915  -119.1082 C0            1 RES     
    6176 C0         225.2940  -148.7540  -119.6644 C0            1 RES     
    6177 C0         225.2123  -148.8266  -121.2266 C0            1 RES     
    6178 C0         226.3447  -148.1074  -121.9872 C0            1 RES     
    6179 C0         226.2115  -148.1841  -123.5184 C0            1 RES     
    6180 C0         226.2156  -149.6010  -124.1197 C0            1 RES     
    6181 C0         227.4155  -150.4764  -123.7215 C0            1 RES     
    6182 C0         228.7751  -149.8538  -124.0847 C0            1 RES     
    6183 C0         229.9638  -150.7386  -123.6756 C0            1 RES     
    6184 C0         230.0312  -152.0555  -124.4695 C0            1 RES     
    6185 C0         231.2859  -152.8840  -124.1524 C0            1 RES     
    6186 C0         231.3204  -153.4003  -122.7138 C0            1 RES     
    6187 C0         225.4657  -147.2567  -119.1688 C0            1 RES     
    6188 C0         224.3863  -146.1708  -119.4401 C0            1 RES     
    6189 C0         223.5929  -145.8036  -118.1732 C0            1 RES     
    6190 C0         222.4682  -144.7954  -118.3422 C0            1 RES     
    6191 C0         222.8696  -143.3448  -118.5692 C0            1 RES     
    6192 C0         221.5751  -142.5070  -118.5333 C0            1 RES     
    6193 C0         221.7962  -140.9944  -118.5915 C0            1 RES     
    6194 C0         222.4772  -140.4581  -117.3314 C0            1 RES     
    6195 H6         223.3891  -149.8775  -119.8501 H6            1 RES     
    6196 H6         224.7049  -150.7844  -119.2346 H6            1 RES     
    6197 H6         226.2692  -149.2016  -119.3634 H6            1 RES     
    6198 H6         224.2395  -148.4044  -121.5592 H6            1 RES     
    6199 H6         225.2370  -149.8987  -121.5179 H6            1 RES     
    6200 H6         227.3235  -148.5210  -121.6656 H6            1 RES     
    6201 H6         226.3308  -147.0232  -121.7630 H6            1 RES     
    6202 H6         227.0493  -147.6033  -123.9599 H6            1 RES     
    6203 H6         225.2712  -147.6780  -123.8296 H6            1 RES     
    6204 H6         226.1884  -149.5008  -125.2268 H6            1 RES     
    6205 H6         225.2872  -150.1304  -123.8167 H6            1 RES     
    6206 H6         227.3843  -150.6748  -122.6288 H6            1 RES     
    6207 H6         227.2896  -151.4459  -124.2454 H6            1 RES     
    6208 H6         228.8879  -148.8942  -123.5382 H6            1 RES     
    6209 H6         228.8227  -149.6410  -125.1746 H6            1 RES     
    6210 H6         230.8947  -150.1650  -123.8764 H6            1 RES     
    6211 H6         229.9051  -150.9354  -122.5840 H6            1 RES     
    6212 H6         229.1356  -152.6820  -124.2785 H6            1 RES     
    6213 H6         230.0584  -151.8046  -125.5524 H6            1 RES     
    6214 H6         232.1971  -152.2803  -124.3547 H6            1 RES     
    6215 H6         231.2966  -153.7642  -124.8308 H6            1 RES     
    6216 H6         231.3649  -152.5649  -121.9863 H6            1 RES     
    6217 H6         230.4234  -154.0223  -122.5075 H6            1 RES     
    6218 H6         232.2261  -154.0263  -122.5710 H6            1 RES     
    6219 H6         226.3766  -146.8964  -119.6811 H6            1 RES     
    6220 H6         225.8553  -147.1809  -118.1362 H6            1 RES     
    6221 H6         224.9139  -145.2311  -119.7157 H6            1 RES     
    6222 H6         223.7442  -146.4552  -120.2982 H6            1 RES     
    6223 H6         224.2859  -145.4662  -117.3694 H6            1 RES     
    6224 H6         223.0602  -146.6753  -117.8097 H6            1 RES     
    6225 H6         221.7610  -145.1455  -119.1253 H6            1 RES     
    6226 H6         221.9523  -144.7841  -117.3680 H6            1 RES     
    6227 H6         223.5497  -143.0481  -117.7429 H6            1 RES     
    6228 H6         223.3955  -143.2205  -119.5387 H6            1 RES     
    6229 H6         220.9442  -142.8108  -119.3975 H6            1 RES     
    6230 H6         220.9995  -142.7249  -117.6042 H6            1 RES     
    6231 H6         220.7943  -140.5163  -118.6577 H6            1 RES     
    6232 H6         222.3773  -140.7280  -119.4966 H6            1 RES     
    6233 H6         223.5027  -140.8632  -117.2213 H6            1 RES     
    6234 H6         222.5456  -139.3527  -117.3945 H6            1 RES     
    6235 H6         221.8822  -140.7225  -116.4298 H6            1 RES     
    6236 C0         227.8251  -161.2595  -113.2266 C0            1 RES     
    6237 C1         226.6647  -160.3330  -113.6517 C1            1 RES     
    6238 C1         225.5145  -161.0176  -113.8832 C1            1 RES     
    6239 S2         224.2613  -160.0546  -114.4350 S2            1 RES     
    6240 C1         225.2385  -158.6632  -114.4268 C1            1 RES     
    6241 C1         226.5317  -158.9772  -113.9949 C1            1 RES     
    6242 C1         225.7576  -162.3946  -113.6889 C1            1 RES     
    6243 C1         227.0741  -162.5804  -113.4008 C1            1 RES     
    6244 C1         227.4163  -163.9258  -113.3375 C1            1 RES     
    6245 C1         226.2878  -164.7340  -113.5554 C1            1 RES     
    6246 S2         224.8932  -163.8077  -113.8391 S2            1 RES     
    6247 H3         227.3171  -158.2454  -113.9935 H3            1 RES     
    6248 H3         228.4170  -164.2970  -113.1512 H3            1 RES     
    6249 N4         225.5826  -168.3491  -112.8596 N4            1 RES     
    6250 C1         225.6177  -166.9916  -112.7178 C1            1 RES     
    6251 C1         226.2779  -166.1886  -113.6639 C1            1 RES     
    6252 C1         226.8736  -166.8164  -114.7593 C1            1 RES     
    6253 N4         227.4913  -166.1554  -115.7716 N4            1 RES     
    6254 S2         227.9273  -167.3891  -116.7813 S2            1 RES     
    6255 N4         227.3782  -168.7452  -116.0082 N4            1 RES     
    6256 C1         226.8063  -168.2259  -114.8938 C1            1 RES     
    6257 C1         226.1634  -168.9821  -113.9172 C1            1 RES     
    6258 H5         225.1364  -166.5334  -111.8581 H5            1 RES     
    6259 C0         228.3737  -161.1902  -111.7579 C0            1 RES     
    6260 C0         227.7245  -161.6663  -110.4037 C0            1 RES     
    6261 C0         228.7210  -161.1977  -109.2857 C0            1 RES     
    6262 C0         228.3792  -161.5928  -107.8437 C0            1 RES     
    6263 C0         229.4008  -161.0349  -106.8249 C0            1 RES     
    6264 C0         230.8511  -161.5435  -106.9791 C0            1 RES     
    6265 C0         231.0060  -163.0745  -106.9615 C0            1 RES     
    6266 C0         230.4485  -163.7224  -105.6817 C0            1 RES     
    6267 C0         230.5535  -165.2542  -105.6912 C0            1 RES     
    6268 C0         232.0045  -165.7620  -105.6430 C0            1 RES     
    6269 C0         232.0945  -167.2927  -105.5371 C0            1 RES     
    6270 C0         231.5637  -168.0145  -106.7763 C0            1 RES     
    6271 C0         226.2470  -161.2738  -110.0751 C0            1 RES     
    6272 C0         225.8855  -159.7709  -109.8675 C0            1 RES     
    6273 C0         224.8218  -159.3703  -110.8942 C0            1 RES     
    6274 C0         224.5496  -157.8830  -111.1010 C0            1 RES     
    6275 C0         223.6565  -157.2084  -110.0700 C0            1 RES     
    6276 C0         223.4770  -155.7360  -110.4955 C0            1 RES     
    6277 C0         222.4485  -154.9623  -109.6674 C0            1 RES     
    6278 C0         221.0205  -155.4576  -109.9056 C0            1 RES     
    6279 H6         228.6214  -160.1748  -111.5806 H6            1 RES     
    6280 H6         229.3275  -161.7634  -111.7957 H6            1 RES     
    6281 H6         227.7198  -162.7789  -110.4279 H6            1 RES     
    6282 H6         228.8045  -160.0892  -109.3104 H6            1 RES     
    6283 H6         229.7219  -161.6148  -109.5281 H6            1 RES     
    6284 H6         228.3039  -162.6959  -107.7583 H6            1 RES     
    6285 H6         227.3991  -161.1541  -107.5677 H6            1 RES     
    6286 H6         229.0409  -161.2824  -105.8049 H6            1 RES     
    6287 H6         229.4169  -159.9244  -106.8919 H6            1 RES     
    6288 H6         231.4583  -161.1090  -106.1539 H6            1 RES     
    6289 H6         231.2823  -161.1629  -107.9296 H6            1 RES     
    6290 H6         230.4922  -163.5046  -107.8469 H6            1 RES     
    6291 H6         232.0890  -163.2973  -107.0574 H6            1 RES     
    6292 H6         229.3675  -163.4874  -105.6031 H6            1 RES     
    6293 H6         230.9618  -163.3104  -104.7854 H6            1 RES     
    6294 H6         230.0247  -165.6321  -104.7891 H6            1 RES     
    6295 H6         230.0272  -165.6390  -106.5898 H6            1 RES     
    6296 H6         232.5714  -165.4317  -106.5380 H6            1 RES     
    6297 H6         232.4912  -165.3315  -104.7408 H6            1 RES     
    6298 H6         231.5426  -167.6415  -104.6371 H6            1 RES     
    6299 H6         233.1641  -167.5681  -105.4143 H6            1 RES     
    6300 H6         230.4821  -167.8218  -106.9245 H6            1 RES     
    6301 H6         232.1233  -167.6881  -107.6786 H6            1 RES     
    6302 H6         231.7001  -169.1090  -106.6505 H6            1 RES     
    6303 H6         225.9587  -161.8035  -109.1419 H6            1 RES     
    6304 H6         225.5856  -161.7463  -110.8326 H6            1 RES     
    6305 H6         225.4670  -159.6021  -108.8499 H6            1 RES     
    6306 H6         226.7924  -159.1421  -109.9767 H6            1 RES     
    6307 H6         223.8790  -159.9436  -110.7699 H6            1 RES     
    6308 H6         225.2564  -159.6663  -111.8251 H6            1 RES     
    6309 H6         225.5016  -157.3560  -111.2013 H6            1 RES     
    6310 H6         224.0215  -157.7943  -112.0777 H6            1 RES     
    6311 H6         222.6837  -157.7441  -110.0778 H6            1 RES     
    6312 H6         224.0971  -157.2644  -109.0522 H6            1 RES     
    6313 H6         224.4647  -155.2296  -110.4056 H6            1 RES     
    6314 H6         223.1645  -155.6744  -111.5628 H6            1 RES     
    6315 H6         222.4879  -153.8982  -109.9886 H6            1 RES     
    6316 H6         222.7054  -155.0135  -108.5884 H6            1 RES     
    6317 H6         220.8925  -156.5057  -109.5705 H6            1 RES     
    6318 H6         220.3091  -154.8230  -109.3390 H6            1 RES     
    6319 H6         220.7671  -155.3885  -110.9871 H6            1 RES     
    6320 C0         228.9594  -161.0172  -114.2991 C0            1 RES     
    6321 C0         230.3691  -160.3232  -114.0212 C0            1 RES     
    6322 C0         230.8931  -159.8159  -115.4070 C0            1 RES     
    6323 C0         232.3618  -159.3464  -115.4329 C0            1 RES     
    6324 C0         232.8267  -158.8345  -116.8077 C0            1 RES     
    6325 C0         232.7524  -159.8521  -117.9601 C0            1 RES     
    6326 C0         233.4733  -161.1856  -117.7020 C0            1 RES     
    6327 C0         234.9675  -161.0203  -117.3732 C0            1 RES     
    6328 C0         235.6721  -162.3616  -117.1129 C0            1 RES     
    6329 C0         235.7521  -163.2494  -118.3677 C0            1 RES     
    6330 C0         236.5641  -164.5344  -118.1431 C0            1 RES     
    6331 C0         235.9161  -165.4903  -117.1414 C0            1 RES     
    6332 C0         230.6596  -159.2640  -112.8763 C0            1 RES     
    6333 C0         230.0431  -157.8367  -112.8995 C0            1 RES     
    6334 C0         228.9190  -157.6669  -111.8617 C0            1 RES     
    6335 C0         228.2047  -156.3256  -111.8447 C0            1 RES     
    6336 C0         228.9735  -155.1410  -111.2766 C0            1 RES     
    6337 C0         227.9894  -153.9554  -111.2065 C0            1 RES     
    6338 C0         228.5447  -152.7097  -110.5138 C0            1 RES     
    6339 C0         228.7771  -152.9315  -109.0185 C0            1 RES     
    6340 H6         228.4925  -160.5317  -115.1875 H6            1 RES     
    6341 H6         229.2248  -162.0100  -114.7280 H6            1 RES     
    6342 H6         231.0225  -161.1712  -113.7113 H6            1 RES     
    6343 H6         230.2486  -158.9798  -115.7548 H6            1 RES     
    6344 H6         230.7919  -160.6503  -116.1339 H6            1 RES     
    6345 H6         233.0177  -160.1735  -115.0892 H6            1 RES     
    6346 H6         232.5016  -158.4823  -114.7549 H6            1 RES     
    6347 H6         233.8765  -158.4871  -116.7014 H6            1 RES     
    6348 H6         232.2215  -157.9453  -117.0906 H6            1 RES     
    6349 H6         233.1846  -159.3727  -118.8656 H6            1 RES     
    6350 H6         231.6873  -160.0740  -118.1849 H6            1 RES     
    6351 H6         232.9728  -161.7234  -116.8685 H6            1 RES     
    6352 H6         233.3517  -161.7958  -118.6201 H6            1 RES     
    6353 H6         235.0664  -160.4216  -116.4437 H6            1 RES     
    6354 H6         235.4847  -160.4771  -118.1934 H6            1 RES     
    6355 H6         236.7091  -162.1377  -116.7804 H6            1 RES     
    6356 H6         235.1478  -162.8875  -116.2869 H6            1 RES     
    6357 H6         234.7388  -163.5285  -118.7233 H6            1 RES     
    6358 H6         236.2568  -162.6682  -119.1701 H6            1 RES     
    6359 H6         237.5908  -164.2767  -117.8033 H6            1 RES     
    6360 H6         236.6449  -165.0641  -119.1167 H6            1 RES     
    6361 H6         235.8555  -165.0366  -116.1317 H6            1 RES     
    6362 H6         234.8966  -165.7704  -117.4823 H6            1 RES     
    6363 H6         236.5299  -166.4124  -117.0653 H6            1 RES     
    6364 H6         231.7537  -159.1094  -112.9110 H6            1 RES     
    6365 H6         230.6191  -159.6983  -111.8597 H6            1 RES     
    6366 H6         230.8304  -157.1230  -112.5708 H6            1 RES     
    6367 H6         229.7436  -157.5505  -113.9280 H6            1 RES     
    6368 H6         229.2970  -157.9073  -110.8421 H6            1 RES     
    6369 H6         228.1078  -158.3505  -112.0860 H6            1 RES     
    6370 H6         227.8031  -156.0981  -112.8561 H6            1 RES     
    6371 H6         227.3643  -156.4636  -111.1446 H6            1 RES     
    6372 H6         229.3221  -155.4196  -110.2597 H6            1 RES     
    6373 H6         229.8509  -154.8910  -111.9088 H6            1 RES     
    6374 H6         227.6980  -153.6879  -112.2461 H6            1 RES     
    6375 H6         227.0627  -154.2540  -110.6642 H6            1 RES     
    6376 H6         227.7822  -151.9066  -110.6168 H6            1 RES     
    6377 H6         229.4776  -152.3795  -111.0123 H6            1 RES     
    6378 H6         229.5596  -153.6953  -108.8389 H6            1 RES     
    6379 H6         229.1078  -151.9799  -108.5542 H6            1 RES     
    6380 H6         227.8335  -153.2536  -108.5258 H6            1 RES     
    6381 C0         227.3320  -174.2793  -113.5276 C0            1 RES     
    6382 C1         226.6681  -172.9068  -113.7753 C1            1 RES     
    6383 C1         225.5805  -172.9968  -114.5841 C1            1 RES     
    6384 S2         224.8916  -171.5150  -114.9475 S2            1 RES     
    6385 C1         226.0690  -170.6739  -114.0546 C1            1 RES     
    6386 C1         226.9845  -171.5683  -113.4893 C1            1 RES     
    6387 C1         225.4162  -174.3425  -114.9777 C1            1 RES     
    6388 C1         226.4373  -175.0850  -114.4707 C1            1 RES     
    6389 C1         226.4198  -176.3945  -114.9357 C1            1 RES     
    6390 C1         225.3188  -176.6039  -115.7832 C1            1 RES     
    6391 S2         224.3904  -175.1946  -115.9718 S2            1 RES     
    6392 H3         227.8472  -171.2243  -112.9510 H3            1 RES     
    6393 H3         227.1578  -177.1462  -114.6824 H3            1 RES     
    6394 N4         223.6153  -179.7090  -117.0106 N4            1 RES     
    6395 C1         223.8917  -178.5982  -116.2664 C1            1 RES     
    6396 C1         225.0302  -177.8192  -116.5363 C1            1 RES     
    6397 C1         225.8528  -178.2011  -117.5977 C1            1 RES     
    6398 N4         226.9479  -177.5063  -117.9994 N4            1 RES     
    6399 S2         227.4600  -178.3827  -119.3039 S2            1 RES     
    6400 N4         226.3660  -179.6204  -119.4024 N4            1 RES     
    6401 C1         225.5332  -179.3475  -118.3677 C1            1 RES     
    6402 C1         224.4086  -180.1028  -118.0461 C1            1 RES     
    6403 H5         223.2263  -178.3233  -115.4526 H5            1 RES     
    6404 C0         227.2608  -174.9282  -112.1005 C0            1 RES     
    6405 C0         226.0444  -175.5699  -111.3320 C0            1 RES     
    6406 C0         226.5992  -175.9168  -109.9057 C0            1 RES     
    6407 C0         225.6407  -176.6314  -108.9450 C0            1 RES     
    6408 C0         226.2765  -176.8760  -107.5562 C0            1 RES     
    6409 C0         227.5190  -177.7934  -107.5373 C0            1 RES     
    6410 C0         227.3113  -179.1787  -108.1743 C0            1 RES     
    6411 C0         226.1678  -179.9767  -107.5228 C0            1 RES     
    6412 C0         225.9259  -181.3351  -108.1964 C0            1 RES     
    6413 C0         227.0898  -182.3220  -108.0044 C0            1 RES     
    6414 C0         226.7895  -183.7139  -108.5830 C0            1 RES     
    6415 C0         226.6420  -183.7145  -110.1050 C0            1 RES     
    6416 C0         224.6834  -174.8032  -111.2620 C0            1 RES     
    6417 C0         224.6122  -173.4442  -110.4999 C0            1 RES     
    6418 C0         224.1542  -172.3535  -111.4728 C0            1 RES     
    6419 C0         224.3219  -170.8974  -111.0477 C0            1 RES     
    6420 C0         223.2696  -170.3440  -110.0980 C0            1 RES     
    6421 C0         223.6024  -168.8592  -109.8416 C0            1 RES     
    6422 C0         222.5308  -168.1003  -109.0556 C0            1 RES     
    6423 C0         221.2397  -167.9226  -109.8573 C0            1 RES     
    6424 H6         227.6373  -174.2031  -111.4251 H6            1 RES     
    6425 H6         228.0001  -175.7598  -112.1419 H6            1 RES     
    6426 H6         225.8032  -176.5210  -111.8572 H6            1 RES     
    6427 H6         226.9290  -174.9812  -109.4033 H6            1 RES     
    6428 H6         227.4953  -176.5600  -110.0384 H6            1 RES     
    6429 H6         225.2955  -177.5862  -109.3911 H6            1 RES     
    6430 H6         224.7546  -175.9888  -108.7684 H6            1 RES     
    6431 H6         225.5001  -177.3106  -106.8932 H6            1 RES     
    6432 H6         226.5632  -175.8994  -107.1068 H6            1 RES     
    6433 H6         227.8336  -177.9258  -106.4780 H6            1 RES     
    6434 H6         228.3613  -177.2939  -108.0621 H6            1 RES     
    6435 H6         227.1046  -179.0559  -109.2584 H6            1 RES     
    6436 H6         228.2663  -179.7348  -108.0727 H6            1 RES     
    6437 H6         225.2240  -179.4048  -107.6331 H6            1 RES     
    6438 H6         226.3657  -180.1188  -106.4378 H6            1 RES     
    6439 H6         225.0162  -181.7797  -107.7372 H6            1 RES     
    6440 H6         225.7234  -181.1640  -109.2745 H6            1 RES     
    6441 H6         228.0203  -181.9349  -108.4690 H6            1 RES     
    6442 H6         227.2657  -182.4404  -106.9129 H6            1 RES     
    6443 H6         225.8663  -184.1242  -108.1185 H6            1 RES     
    6444 H6         227.6352  -184.3861  -108.3223 H6            1 RES     
    6445 H6         225.7772  -183.1005  -110.4279 H6            1 RES     
    6446 H6         227.5679  -183.3256  -110.5796 H6            1 RES     
    6447 H6         226.4719  -184.7535  -110.4572 H6            1 RES     
    6448 H6         223.9425  -175.4777  -110.7819 H6            1 RES     
    6449 H6         224.2855  -174.7071  -112.2949 H6            1 RES     
    6450 H6         223.8768  -173.4970  -109.6660 H6            1 RES     
    6451 H6         225.6040  -173.1956  -110.0706 H6            1 RES     
    6452 H6         223.1368  -172.5463  -111.8737 H6            1 RES     
    6453 H6         224.8419  -172.4465  -112.2863 H6            1 RES     
    6454 H6         225.3279  -170.7563  -110.6450 H6            1 RES     
    6455 H6         224.2534  -170.2897  -111.9786 H6            1 RES     
    6456 H6         222.2855  -170.4477  -110.6023 H6            1 RES     
    6457 H6         223.2511  -170.9057  -109.1402 H6            1 RES     
    6458 H6         224.5612  -168.8147  -109.2768 H6            1 RES     
    6459 H6         223.7560  -168.3224  -110.8055 H6            1 RES     
    6460 H6         222.9278  -167.0844  -108.8376 H6            1 RES     
    6461 H6         222.3254  -168.6117  -108.0917 H6            1 RES     
    6462 H6         220.7617  -168.8970  -110.0795 H6            1 RES     
    6463 H6         220.5229  -167.3098  -109.2740 H6            1 RES     
    6464 H6         221.4532  -167.3962  -110.8144 H6            1 RES     
    6465 C0         228.8191  -174.1147  -114.0346 C0            1 RES     
    6466 C0         230.1223  -174.1277  -113.1140 C0            1 RES     
    6467 C0         231.2462  -173.4023  -113.9281 C0            1 RES     
    6468 C0         232.6715  -173.5259  -113.3525 C0            1 RES     
    6469 C0         233.7394  -172.7787  -114.1707 C0            1 RES     
    6470 C0         233.8998  -173.2320  -115.6328 C0            1 RES     
    6471 C0         234.1466  -174.7373  -115.8270 C0            1 RES     
    6472 C0         235.3882  -175.2556  -115.0799 C0            1 RES     
    6473 C0         235.6179  -176.7624  -115.2801 C0            1 RES     
    6474 C0         235.9849  -177.1248  -116.7303 C0            1 RES     
    6475 C0         236.3371  -178.6100  -116.9071 C0            1 RES     
    6476 C0         235.1537  -179.5447  -116.6559 C0            1 RES     
    6477 C0         230.1671  -173.7151  -111.5827 C0            1 RES     
    6478 C0         229.9420  -172.2482  -111.1185 C0            1 RES     
    6479 C0         228.5689  -172.0485  -110.4520 C0            1 RES     
    6480 C0         228.2218  -170.6340  -110.0180 C0            1 RES     
    6481 C0         228.9476  -170.0888  -108.7962 C0            1 RES     
    6482 C0         228.3042  -168.7283  -108.4583 C0            1 RES     
    6483 C0         228.8042  -168.0951  -107.1586 C0            1 RES     
    6484 C0         228.3758  -168.8890  -105.9235 C0            1 RES     
    6485 H6         228.8585  -173.2171  -114.6947 H6            1 RES     
    6486 H6         229.0043  -174.9212  -114.7797 H6            1 RES     
    6487 H6         230.3961  -175.2068  -113.0620 H6            1 RES     
    6488 H6         230.9926  -172.3237  -114.0154 H6            1 RES     
    6489 H6         231.2563  -173.8348  -114.9517 H6            1 RES     
    6490 H6         232.9390  -174.5996  -113.2616 H6            1 RES     
    6491 H6         232.7217  -173.0651  -112.3470 H6            1 RES     
    6492 H6         234.7119  -172.8999  -113.6476 H6            1 RES     
    6493 H6         233.5071  -171.6910  -114.1684 H6            1 RES     
    6494 H6         234.7472  -172.6632  -116.0744 H6            1 RES     
    6495 H6         232.9880  -172.9558  -116.2043 H6            1 RES     
    6496 H6         233.2537  -175.3067  -115.4912 H6            1 RES     
    6497 H6         234.2632  -174.9025  -116.9175 H6            1 RES     
    6498 H6         235.2444  -175.0961  -113.9909 H6            1 RES     
    6499 H6         236.2921  -174.6923  -115.3976 H6            1 RES     
    6500 H6         236.4628  -177.0639  -114.6233 H6            1 RES     
    6501 H6         234.7092  -177.3102  -114.9515 H6            1 RES     
    6502 H6         235.1581  -176.8717  -117.4254 H6            1 RES     
    6503 H6         236.8792  -176.5302  -117.0188 H6            1 RES     
    6504 H6         237.1773  -178.8811  -116.2316 H6            1 RES     
    6505 H6         236.6738  -178.7606  -117.9555 H6            1 RES     
    6506 H6         234.8039  -179.4797  -115.6059 H6            1 RES     
    6507 H6         234.3153  -179.2953  -117.3406 H6            1 RES     
    6508 H6         235.4675  -180.5925  -116.8471 H6            1 RES     
    6509 H6         231.1917  -173.9703  -111.2553 H6            1 RES     
    6510 H6         229.6358  -174.4269  -110.9233 H6            1 RES     
    6511 H6         230.6740  -172.0337  -110.3089 H6            1 RES     
    6512 H6         230.1416  -171.5356  -111.9442 H6            1 RES     
    6513 H6         228.4531  -172.7472  -109.5925 H6            1 RES     
    6514 H6         227.7813  -172.2643  -111.1652 H6            1 RES     
    6515 H6         228.3105  -169.9407  -110.8825 H6            1 RES     
    6516 H6         227.1663  -170.6874  -109.7042 H6            1 RES     
    6517 H6         228.7981  -170.8088  -107.9640 H6            1 RES     
    6518 H6         230.0343  -169.9757  -108.9918 H6            1 RES     
    6519 H6         228.5113  -168.0310  -109.2998 H6            1 RES     
    6520 H6         227.1980  -168.8343  -108.3743 H6            1 RES     
    6521 H6         228.3418  -167.0865  -107.0831 H6            1 RES     
    6522 H6         229.9058  -167.9793  -107.1893 H6            1 RES     
    6523 H6         228.8346  -169.8975  -105.9106 H6            1 RES     
    6524 H6         228.6997  -168.3486  -105.0104 H6            1 RES     
    6525 H6         227.2687  -168.9919  -105.8968 H6            1 RES     
    6526 C0         224.1253  -185.2417  -119.8040 C0            1 RES     
    6527 C1         223.9339  -183.7272  -119.5683 C1            1 RES     
    6528 C1         223.2604  -183.1268  -120.5838 C1            1 RES     
    6529 S2         223.1162  -181.4688  -120.4038 S2            1 RES     
    6530 C1         224.0033  -181.4822  -118.9533 C1            1 RES     
    6531 C1         224.4006  -182.7857  -118.6360 C1            1 RES     
    6532 C1         222.9700  -184.0930  -121.5711 C1            1 RES     
    6533 C1         223.5181  -185.2838  -121.2071 C1            1 RES     
    6534 C1         223.3949  -186.2478  -122.2004 C1            1 RES     
    6535 C1         222.6981  -185.7323  -123.3063 C1            1 RES     
    6536 S2         222.2555  -184.1096  -123.0731 S2            1 RES     
    6537 H3         225.0358  -182.9908  -117.7952 H3            1 RES     
    6538 H3         223.7877  -187.2552  -122.1309 H3            1 RES     
    6539 N4         220.9710  -187.3662  -126.2042 N4            1 RES     
    6540 C1         221.1719  -186.7652  -124.9948 C1            1 RES     
    6541 C1         222.4667  -186.4161  -124.5738 C1            1 RES     
    6542 C1         223.5329  -186.6803  -125.4354 C1            1 RES     
    6543 N4         224.8221  -186.3425  -125.1762 N4            1 RES     
    6544 S2         225.5969  -186.8361  -126.5502 S2            1 RES     
    6545 N4         224.3847  -187.4704  -127.4812 N4            1 RES     
    6546 C1         223.2957  -187.2873  -126.6942 C1            1 RES     
    6547 C1         221.9982  -187.6390  -127.0569 C1            1 RES     
    6548 H5         220.3194  -186.5653  -124.3514 H5            1 RES     
    6549 C0         223.3580  -186.2696  -118.8999 C0            1 RES     
    6550 C0         221.8284  -186.6440  -118.8542 C0            1 RES     
    6551 C0         221.6871  -187.6400  -117.6499 C0            1 RES     
    6552 C0         220.2962  -188.2384  -117.4058 C0            1 RES     
    6553 C0         220.2647  -189.1628  -116.1659 C0            1 RES     
    6554 C0         221.1632  -190.4171  -116.2389 C0            1 RES     
    6555 C0         220.9208  -191.3174  -117.4631 C0            1 RES     
    6556 C0         219.4676  -191.8131  -117.5688 C0            1 RES     
    6557 C0         219.2150  -192.6650  -118.8210 C0            1 RES     
    6558 C0         219.9600  -194.0104  -118.7984 C0            1 RES     
    6559 C0         219.6105  -194.9026  -120.0002 C0            1 RES     
    6560 C0         220.0760  -194.3229  -121.3364 C0            1 RES     
    6561 C0         220.7558  -185.5073  -118.8047 C0            1 RES     
    6562 C0         220.6943  -184.5707  -117.5590 C0            1 RES     
    6563 C0         220.9088  -183.1243  -118.0150 C0            1 RES     
    6564 C0         221.2143  -182.0750  -116.9499 C0            1 RES     
    6565 C0         220.0249  -181.5397  -116.1662 C0            1 RES     
    6566 C0         220.5504  -180.4676  -115.1885 C0            1 RES     
    6567 C0         219.4534  -179.6913  -114.4564 C0            1 RES     
    6568 C0         218.6547  -178.7876  -115.3981 C0            1 RES     
    6569 H6         223.5897  -186.0147  -117.8973 H6            1 RES     
    6570 H6         223.8500  -187.2445  -119.1174 H6            1 RES     
    6571 H6         221.6084  -187.1956  -119.7955 H6            1 RES     
    6572 H6         221.9918  -187.1264  -116.7119 H6            1 RES     
    6573 H6         222.3967  -188.4781  -117.8189 H6            1 RES     
    6574 H6         219.9515  -188.7825  -118.3086 H6            1 RES     
    6575 H6         219.5782  -187.4198  -117.1971 H6            1 RES     
    6576 H6         219.2151  -189.4831  -116.0012 H6            1 RES     
    6577 H6         220.5606  -188.5796  -115.2658 H6            1 RES     
    6578 H6         220.9991  -191.0129  -115.3134 H6            1 RES     
    6579 H6         222.2317  -190.1127  -116.2393 H6            1 RES     
    6580 H6         221.1889  -190.7608  -118.3858 H6            1 RES     
    6581 H6         221.6103  -192.1828  -117.3775 H6            1 RES     
    6582 H6         218.7950  -190.9351  -117.6517 H6            1 RES     
    6583 H6         219.1870  -192.3835  -116.6564 H6            1 RES     
    6584 H6         218.1241  -192.8746  -118.8694 H6            1 RES     
    6585 H6         219.4951  -192.0702  -119.7156 H6            1 RES     
    6586 H6         221.0587  -193.8562  -118.7752 H6            1 RES     
    6587 H6         219.6625  -194.5544  -117.8756 H6            1 RES     
    6588 H6         218.5132  -195.0795  -120.0320 H6            1 RES     
    6589 H6         220.1143  -195.8833  -119.8602 H6            1 RES     
    6590 H6         219.5666  -193.3640  -121.5607 H6            1 RES     
    6591 H6         221.1749  -194.1620  -121.3220 H6            1 RES     
    6592 H6         219.8321  -195.0363  -122.1512 H6            1 RES     
    6593 H6         219.7566  -185.9846  -118.8951 H6            1 RES     
    6594 H6         220.8272  -184.9214  -119.7461 H6            1 RES     
    6595 H6         219.6988  -184.6352  -117.0651 H6            1 RES     
    6596 H6         221.4663  -184.8677  -116.8205 H6            1 RES     
    6597 H6         220.1151  -182.7795  -118.7108 H6            1 RES     
    6598 H6         221.8213  -183.1754  -118.5700 H6            1 RES     
    6599 H6         221.9856  -182.4608  -116.2789 H6            1 RES     
    6600 H6         221.6530  -181.2030  -117.4863 H6            1 RES     
    6601 H6         219.3212  -181.0943  -116.9010 H6            1 RES     
    6602 H6         219.5081  -182.3493  -115.6087 H6            1 RES     
    6603 H6         221.1945  -180.9757  -114.4355 H6            1 RES     
    6604 H6         221.1845  -179.7270  -115.7269 H6            1 RES     
    6605 H6         219.9473  -179.0345  -113.7068 H6            1 RES     
    6606 H6         218.7786  -180.3911  -113.9201 H6            1 RES     
    6607 H6         218.0994  -179.3773  -116.1537 H6            1 RES     
    6608 H6         217.9217  -178.1972  -114.8116 H6            1 RES     
    6609 H6         219.3375  -178.0801  -115.9196 H6            1 RES     
    6610 C0         225.6882  -185.4690  -119.7715 C0            1 RES     
    6611 C0         226.4875  -186.2761  -118.6508 C0            1 RES     
    6612 C0         227.9711  -185.7796  -118.7217 C0            1 RES     
    6613 C0         228.9902  -186.6076  -117.9131 C0            1 RES     
    6614 C0         230.4301  -186.0704  -117.9922 C0            1 RES     
    6615 C0         231.0466  -186.0153  -119.4015 C0            1 RES     
    6616 C0         231.0096  -187.3390  -120.1833 C0            1 RES     
    6617 C0         231.7100  -188.4998  -119.4553 C0            1 RES     
    6618 C0         231.6598  -189.8164  -120.2473 C0            1 RES     
    6619 C0         232.4762  -189.7625  -121.5510 C0            1 RES     
    6620 C0         232.5309  -191.1134  -122.2813 C0            1 RES     
    6621 C0         231.1688  -191.5742  -122.8005 C0            1 RES     
    6622 C0         226.0181  -186.4654  -117.1472 C0            1 RES     
    6623 C0         225.9600  -185.2763  -116.1469 C0            1 RES     
    6624 C0         224.5170  -184.8312  -115.8488 C0            1 RES     
    6625 C0         224.3502  -183.6322  -114.9300 C0            1 RES     
    6626 C0         224.6395  -183.8495  -113.4514 C0            1 RES     
    6627 C0         224.2340  -182.5554  -112.7167 C0            1 RES     
    6628 C0         224.3106  -182.6410  -111.1913 C0            1 RES     
    6629 C0         223.2677  -183.5969  -110.6101 C0            1 RES     
    6630 H6         226.1813  -184.4798  -119.9177 H6            1 RES     
    6631 H6         225.9673  -185.9760  -120.7229 H6            1 RES     
    6632 H6         226.4725  -187.3265  -119.0229 H6            1 RES     
    6633 H6         228.0178  -184.7248  -118.3746 H6            1 RES     
    6634 H6         228.2858  -185.8030  -119.7872 H6            1 RES     
    6635 H6         228.9554  -187.6645  -118.2512 H6            1 RES     
    6636 H6         228.7426  -186.5756  -116.8344 H6            1 RES     
    6637 H6         231.0662  -186.7123  -117.3460 H6            1 RES     
    6638 H6         230.4628  -185.0465  -117.5590 H6            1 RES     
    6639 H6         232.1023  -185.6817  -119.2982 H6            1 RES     
    6640 H6         230.5181  -185.2451  -120.0028 H6            1 RES     
    6641 H6         229.9546  -187.6197  -120.3889 H6            1 RES     
    6642 H6         231.5050  -187.1473  -121.1569 H6            1 RES     
    6643 H6         231.1897  -188.6859  -118.4925 H6            1 RES     
    6644 H6         232.7664  -188.2345  -119.2340 H6            1 RES     
    6645 H6         232.0895  -190.6135  -119.6022 H6            1 RES     
    6646 H6         230.5983  -190.0703  -120.4535 H6            1 RES     
    6647 H6         232.0669  -189.0006  -122.2460 H6            1 RES     
    6648 H6         233.5194  -189.4767  -121.2933 H6            1 RES     
    6649 H6         232.9559  -191.8889  -121.6077 H6            1 RES     
    6650 H6         233.2095  -191.0043  -123.1546 H6            1 RES     
    6651 H6         230.4589  -191.7529  -121.9678 H6            1 RES     
    6652 H6         230.7443  -190.8148  -123.4912 H6            1 RES     
    6653 H6         231.2919  -192.5281  -123.3551 H6            1 RES     
    6654 H6         226.7477  -187.1745  -116.7148 H6            1 RES     
    6655 H6         225.1274  -187.1136  -117.0466 H6            1 RES     
    6656 H6         226.3433  -185.6391  -115.1678 H6            1 RES     
    6657 H6         226.6201  -184.4484  -116.4760 H6            1 RES     
    6658 H6         223.9215  -185.6895  -115.4626 H6            1 RES     
    6659 H6         224.0458  -184.4824  -116.7609 H6            1 RES     
    6660 H6         224.9222  -182.7668  -115.3299 H6            1 RES     
    6661 H6         223.2729  -183.4001  -114.9635 H6            1 RES     
    6662 H6         224.0200  -184.7045  -113.1071 H6            1 RES     
    6663 H6         225.7114  -184.0824  -113.2819 H6            1 RES     
    6664 H6         224.9035  -181.7380  -113.0642 H6            1 RES     
    6665 H6         223.1900  -182.2708  -112.9833 H6            1 RES     
    6666 H6         224.0917  -181.6264  -110.7919 H6            1 RES     
    6667 H6         225.3317  -182.9339  -110.8761 H6            1 RES     
    6668 H6         223.4488  -184.6406  -110.9350 H6            1 RES     
    6669 H6         223.3183  -183.5644  -109.5024 H6            1 RES     
    6670 H6         222.2461  -183.2894  -110.9243 H6            1 RES     
    6671 C0         221.2965  -191.3666  -130.9544 C0            1 RES     
    6672 C1         221.3687  -190.0697  -130.1186 C1            1 RES     
    6673 C1         221.2989  -188.9532  -130.8892 C1            1 RES     
    6674 S2         221.4670  -187.5303  -130.0235 S2            1 RES     
    6675 C1         221.6868  -188.3684  -128.5606 C1            1 RES     
    6676 C1         221.6282  -189.7498  -128.7755 C1            1 RES     
    6677 C1         221.2130  -189.3401  -132.2441 C1            1 RES     
    6678 C1         221.2957  -190.6954  -132.3287 C1            1 RES     
    6679 C1         221.3619  -191.1396  -133.6438 C1            1 RES     
    6680 C1         221.2879  -190.0567  -134.5360 C1            1 RES     
    6681 S2         221.1608  -188.5734  -133.7192 S2            1 RES     
    6682 H3         221.8199  -190.4503  -127.9851 H3            1 RES     
    6683 H3         221.4621  -192.1777  -133.9373 H3            1 RES     
    6684 N4         220.5212  -189.8333  -138.1983 N4            1 RES     
    6685 C1         220.3591  -189.8060  -136.8429 C1            1 RES     
    6686 C1         221.4272  -190.1243  -135.9864 C1            1 RES     
    6687 C1         222.6586  -190.4453  -136.5607 C1            1 RES     
    6688 N4         223.7826  -190.7153  -135.8487 N4            1 RES     
    6689 S2         224.9041  -190.9506  -137.0398 S2            1 RES     
    6690 N4         224.0467  -190.7325  -138.4383 N4            1 RES     
    6691 C1         222.8063  -190.4475  -137.9704 C1            1 RES     
    6692 C1         221.7124  -190.1506  -138.7791 C1            1 RES     
    6693 H5         219.3900  -189.5434  -136.4277 H5            1 RES     
    6694 C0         220.0291  -192.2861  -130.8502 C0            1 RES     
    6695 C0         218.5627  -192.0649  -131.3820 C0            1 RES     
    6696 C0         217.7433  -193.2900  -130.8431 C0            1 RES     
    6697 C0         216.2733  -193.3817  -131.2707 C0            1 RES     
    6698 C0         215.5538  -194.5974  -130.6404 C0            1 RES     
    6699 C0         216.1067  -195.9848  -131.0343 C0            1 RES     
    6700 C0         216.1711  -196.2505  -132.5487 C0            1 RES     
    6701 C0         214.8055  -196.1097  -133.2443 C0            1 RES     
    6702 C0         214.8826  -196.3202  -134.7632 C0            1 RES     
    6703 C0         215.2408  -197.7631  -135.1572 C0            1 RES     
    6704 C0         215.2027  -197.9903  -136.6769 C0            1 RES     
    6705 C0         216.2709  -197.1980  -137.4314 C0            1 RES     
    6706 C0         217.8376  -190.7071  -131.1069 C0            1 RES     
    6707 C0         217.5014  -190.3063  -129.6375 C0            1 RES     
    6708 C0         218.1923  -188.9777  -129.3155 C0            1 RES     
    6709 C0         218.2795  -188.5514  -127.8528 C0            1 RES     
    6710 C0         217.0288  -187.9243  -127.2547 C0            1 RES     
    6711 C0         217.3518  -187.5287  -125.7985 C0            1 RES     
    6712 C0         216.2572  -186.7093  -125.1110 C0            1 RES     
    6713 C0         216.1140  -185.3104  -125.7143 C0            1 RES     
    6714 H6         219.8990  -192.4974  -129.8196 H6            1 RES     
    6715 H6         220.3376  -193.2333  -131.3475 H6            1 RES     
    6716 H6         218.6134  -192.1354  -132.4915 H6            1 RES     
    6717 H6         217.7610  -193.2822  -129.7313 H6            1 RES     
    6718 H6         218.2574  -194.2155  -131.1801 H6            1 RES     
    6719 H6         216.1993  -193.4133  -132.3768 H6            1 RES     
    6720 H6         215.7318  -192.4837  -130.9108 H6            1 RES     
    6721 H6         214.4813  -194.5465  -130.9202 H6            1 RES     
    6722 H6         215.5941  -194.5133  -129.5317 H6            1 RES     
    6723 H6         215.4650  -196.7594  -130.5581 H6            1 RES     
    6724 H6         217.1282  -196.1132  -130.6166 H6            1 RES     
    6725 H6         216.8959  -195.5489  -133.0129 H6            1 RES     
    6726 H6         216.5614  -197.2803  -132.6864 H6            1 RES     
    6727 H6         214.4321  -195.0763  -133.0942 H6            1 RES     
    6728 H6         214.0707  -196.8152  -132.7982 H6            1 RES     
    6729 H6         213.8813  -196.0849  -135.1855 H6            1 RES     
    6730 H6         215.6155  -195.5997  -135.1832 H6            1 RES     
    6731 H6         216.2467  -198.0405  -134.7795 H6            1 RES     
    6732 H6         214.4925  -198.4432  -134.6948 H6            1 RES     
    6733 H6         214.1964  -197.7301  -137.0719 H6            1 RES     
    6734 H6         215.3801  -199.0705  -136.8691 H6            1 RES     
    6735 H6         216.1167  -196.1056  -137.3224 H6            1 RES     
    6736 H6         217.2820  -197.4667  -137.0581 H6            1 RES     
    6737 H6         216.2148  -197.4432  -138.5127 H6            1 RES     
    6738 H6         216.8752  -190.7221  -131.6620 H6            1 RES     
    6739 H6         218.4005  -189.9017  -131.6254 H6            1 RES     
    6740 H6         216.4046  -190.1681  -129.5069 H6            1 RES     
    6741 H6         217.8350  -191.1010  -128.9398 H6            1 RES     
    6742 H6         217.8331  -188.1485  -129.9608 H6            1 RES     
    6743 H6         219.2133  -189.1643  -129.5723 H6            1 RES     
    6744 H6         218.6194  -189.3993  -127.2531 H6            1 RES     
    6745 H6         219.0749  -187.7734  -127.8004 H6            1 RES     
    6746 H6         216.7876  -187.0277  -127.8642 H6            1 RES     
    6747 H6         216.1694  -188.6270  -127.2814 H6            1 RES     
    6748 H6         217.5188  -188.4640  -125.2175 H6            1 RES     
    6749 H6         218.2933  -186.9350  -125.7560 H6            1 RES     
    6750 H6         216.5496  -186.5821  -124.0454 H6            1 RES     
    6751 H6         215.2893  -187.2521  -125.1475 H6            1 RES     
    6752 H6         215.7840  -185.3552  -126.7709 H6            1 RES     
    6753 H6         215.3603  -184.7347  -125.1397 H6            1 RES     
    6754 H6         217.0849  -184.7691  -125.6597 H6            1 RES     
    6755 C0         222.6287  -192.1469  -130.6196 C0            1 RES     
    6756 C0         222.7237  -193.5243  -129.8197 C0            1 RES     
    6757 C0         224.1859  -193.6145  -129.2664 C0            1 RES     
    6758 C0         224.5950  -194.9827  -128.6844 C0            1 RES     
    6759 C0         226.0305  -195.0188  -128.1311 C0            1 RES     
    6760 C0         227.1460  -194.7097  -129.1456 C0            1 RES     
    6761 C0         227.1265  -195.5693  -130.4204 C0            1 RES     
    6762 C0         227.2089  -197.0805  -130.1414 C0            1 RES     
    6763 C0         227.1831  -197.9255  -131.4253 C0            1 RES     
    6764 C0         228.4355  -197.7273  -132.2979 C0            1 RES     
    6765 C0         228.4715  -198.6618  -133.5172 C0            1 RES     
    6766 C0         227.3572  -198.3813  -134.5255 C0            1 RES     
    6767 C0         221.6727  -194.0358  -128.7470 C0            1 RES     
    6768 C0         221.4918  -193.3332  -127.3717 C0            1 RES     
    6769 C0         220.1852  -192.5231  -127.2948 C0            1 RES     
    6770 C0         219.9414  -191.7439  -126.0129 C0            1 RES     
    6771 C0         219.5714  -192.5489  -124.7751 C0            1 RES     
    6772 C0         219.2079  -191.5364  -123.6698 C0            1 RES     
    6773 C0         218.6587  -192.1659  -122.3883 C0            1 RES     
    6774 C0         217.2879  -192.8104  -122.5989 C0            1 RES     
    6775 H6         223.3454  -191.4224  -130.1673 H6            1 RES     
    6776 H6         223.1388  -192.3581  -131.5866 H6            1 RES     
    6777 H6         222.6236  -194.2975  -130.6161 H6            1 RES     
    6778 H6         224.3252  -192.8404  -128.4811 H6            1 RES     
    6779 H6         224.8798  -193.3816  -130.1025 H6            1 RES     
    6780 H6         224.4624  -195.7660  -129.4598 H6            1 RES     
    6781 H6         223.9577  -195.2373  -127.8154 H6            1 RES     
    6782 H6         226.2025  -196.0298  -127.7038 H6            1 RES     
    6783 H6         226.1166  -194.2961  -127.2900 H6            1 RES     
    6784 H6         228.1218  -194.8441  -128.6296 H6            1 RES     
    6785 H6         227.0807  -193.6429  -129.4483 H6            1 RES     
    6786 H6         226.2031  -195.3542  -130.9995 H6            1 RES     
    6787 H6         227.9932  -195.2486  -131.0336 H6            1 RES     
    6788 H6         226.3254  -197.3834  -129.5415 H6            1 RES     
    6789 H6         228.1240  -197.3148  -129.5556 H6            1 RES     
    6790 H6         227.1370  -198.9946  -131.1233 H6            1 RES     
    6791 H6         226.2602  -197.6847  -131.9944 H6            1 RES     
    6792 H6         228.5115  -196.6789  -132.6530 H6            1 RES     
    6793 H6         229.3290  -197.9517  -131.6753 H6            1 RES     
    6794 H6         228.4148  -199.7203  -133.1824 H6            1 RES     
    6795 H6         229.4442  -198.5143  -134.0342 H6            1 RES     
    6796 H6         226.3572  -198.5635  -134.0829 H6            1 RES     
    6797 H6         227.4175  -197.3310  -134.8821 H6            1 RES     
    6798 H6         227.4733  -199.0587  -135.3976 H6            1 RES     
    6799 H6         221.9973  -195.0651  -128.5078 H6            1 RES     
    6800 H6         220.6944  -194.3042  -129.1882 H6            1 RES     
    6801 H6         221.3694  -194.1256  -126.6007 H6            1 RES     
    6802 H6         222.3936  -192.7460  -127.1044 H6            1 RES     
    6803 H6         219.3119  -193.1799  -127.5102 H6            1 RES     
    6804 H6         220.1998  -191.7338  -128.0380 H6            1 RES     
    6805 H6         220.8007  -191.0676  -125.8122 H6            1 RES     
    6806 H6         219.0443  -191.1371  -126.2192 H6            1 RES     
    6807 H6         218.6938  -193.1795  -125.0310 H6            1 RES     
    6808 H6         220.4102  -193.2013  -124.4548 H6            1 RES     
    6809 H6         220.1230  -190.9554  -123.4205 H6            1 RES     
    6810 H6         218.4435  -190.8159  -124.0421 H6            1 RES     
    6811 H6         218.5314  -191.3472  -121.6463 H6            1 RES     
    6812 H6         219.3818  -192.9019  -121.9842 H6            1 RES     
    6813 H6         217.3458  -193.6661  -123.3006 H6            1 RES     
    6814 H6         216.9056  -193.1839  -121.6269 H6            1 RES     
    6815 H6         216.5673  -192.0619  -122.9957 H6            1 RES     
    6816 C0         221.7894  -191.7660  -143.9716 C0            1 RES     
    6817 C1         221.8132  -190.9611  -142.6536 C1            1 RES     
    6818 C1         222.3006  -189.7046  -142.8235 C1            1 RES     
    6819 S2         222.4262  -188.8363  -141.3978 S2            1 RES     
    6820 C1         221.8628  -190.1467  -140.4724 C1            1 RES     
    6821 C1         221.5887  -191.2441  -141.2959 C1            1 RES     
    6822 C1         222.6699  -189.5388  -144.1759 C1            1 RES     
    6823 C1         222.4766  -190.7107  -144.8395 C1            1 RES     
    6824 C1         222.9533  -190.6639  -146.1441 C1            1 RES     
    6825 C1         223.4773  -189.3928  -146.4340 C1            1 RES     
    6826 S2         223.3720  -188.3474  -145.1001 S2            1 RES     
    6827 H3         221.2945  -192.1928  -140.8888 H3            1 RES     
    6828 H3         222.9279  -191.4959  -146.8376 H3            1 RES     
    6829 N4         224.2793  -187.6527  -149.6557 N4            1 RES     
    6830 C1         223.6089  -188.0384  -148.5305 C1            1 RES     
    6831 C1         224.1558  -189.0008  -147.6643 C1            1 RES     
    6832 C1         225.4092  -189.5306  -147.9759 C1            1 RES     
    6833 N4         226.0735  -190.4219  -147.1963 N4            1 RES     
    6834 S2         227.4899  -190.6241  -148.0238 S2            1 RES     
    6835 N4         227.3215  -189.6381  -149.3421 N4            1 RES     
    6836 C1         226.0938  -189.0992  -149.1397 C1            1 RES     
    6837 C1         225.5003  -188.1624  -149.9816 C1            1 RES     
    6838 H5         222.6389  -187.6001  -148.3121 H5            1 RES     
    6839 C0         220.4133  -192.1320  -144.6313 C0            1 RES     
    6840 C0         219.3619  -191.2198  -145.3692 C0            1 RES     
    6841 C0         218.1476  -192.1642  -145.6791 C0            1 RES     
    6842 C0         216.9827  -191.5570  -146.4707 C0            1 RES     
    6843 C0         215.8238  -192.5615  -146.6722 C0            1 RES     
    6844 C0         216.1645  -193.8265  -147.4906 C0            1 RES     
    6845 C0         216.7573  -193.5560  -148.8846 C0            1 RES     
    6846 C0         215.8424  -192.6935  -149.7721 C0            1 RES     
    6847 C0         216.4605  -192.3784  -151.1418 C0            1 RES     
    6848 C0         216.6152  -193.6199  -152.0365 C0            1 RES     
    6849 C0         217.1271  -193.2767  -153.4445 C0            1 RES     
    6850 C0         218.5524  -192.7228  -153.4489 C0            1 RES     
    6851 C0         218.9074  -189.8763  -144.7107 C0            1 RES     
    6852 C0         218.1196  -189.9149  -143.3651 C0            1 RES     
    6853 C0         218.9044  -189.1317  -142.3083 C0            1 RES     
    6854 C0         218.5028  -189.3011  -140.8458 C0            1 RES     
    6855 C0         217.2905  -188.5080  -140.3804 C0            1 RES     
    6856 C0         217.0951  -188.7881  -138.8755 C0            1 RES     
    6857 C0         216.0297  -187.9170  -138.2060 C0            1 RES     
    6858 C0         216.4485  -186.4475  -138.1250 C0            1 RES     
    6859 H6         219.8459  -192.6232  -143.8826 H6            1 RES     
    6860 H6         220.6740  -192.8913  -145.4028 H6            1 RES     
    6861 H6         219.8269  -190.9156  -146.3334 H6            1 RES     
    6862 H6         217.7289  -192.5484  -144.7233 H6            1 RES     
    6863 H6         218.5337  -193.0355  -146.2502 H6            1 RES     
    6864 H6         217.3436  -191.1748  -147.4472 H6            1 RES     
    6865 H6         216.5570  -190.7073  -145.8997 H6            1 RES     
    6866 H6         214.9873  -192.0279  -147.1691 H6            1 RES     
    6867 H6         215.4433  -192.8869  -145.6786 H6            1 RES     
    6868 H6         215.2332  -194.4251  -147.6035 H6            1 RES     
    6869 H6         216.8840  -194.4560  -146.9247 H6            1 RES     
    6870 H6         217.7419  -193.0548  -148.7728 H6            1 RES     
    6871 H6         216.9316  -194.5409  -149.3655 H6            1 RES     
    6872 H6         215.6791  -191.7158  -149.2746 H6            1 RES     
    6873 H6         214.8550  -193.1879  -149.9039 H6            1 RES     
    6874 H6         215.7845  -191.6622  -151.6579 H6            1 RES     
    6875 H6         217.4392  -191.8793  -150.9815 H6            1 RES     
    6876 H6         217.3035  -194.3586  -151.5760 H6            1 RES     
    6877 H6         215.6151  -194.0931  -152.1463 H6            1 RES     
    6878 H6         216.4415  -192.5467  -153.9275 H6            1 RES     
    6879 H6         217.1216  -194.2084  -154.0505 H6            1 RES     
    6880 H6         218.6139  -191.7602  -152.9022 H6            1 RES     
    6881 H6         219.2489  -193.4543  -152.9870 H6            1 RES     
    6882 H6         218.8722  -192.5402  -154.4962 H6            1 RES     
    6883 H6         218.2628  -189.3448  -145.4430 H6            1 RES     
    6884 H6         219.7919  -189.2074  -144.6405 H6            1 RES     
    6885 H6         217.1198  -189.4389  -143.4789 H6            1 RES     
    6886 H6         217.9676  -190.9649  -143.0425 H6            1 RES     
    6887 H6         219.0206  -188.0607  -142.5774 H6            1 RES     
    6888 H6         219.8753  -189.5781  -142.3437 H6            1 RES     
    6889 H6         218.3830  -190.3655  -140.6291 H6            1 RES     
    6890 H6         219.3646  -188.9386  -140.2405 H6            1 RES     
    6891 H6         217.5130  -187.4344  -140.5575 H6            1 RES     
    6892 H6         216.3780  -188.7909  -140.9466 H6            1 RES     
    6893 H6         216.8090  -189.8581  -138.7597 H6            1 RES     
    6894 H6         218.0504  -188.6349  -138.3237 H6            1 RES     
    6895 H6         215.9008  -188.2826  -137.1635 H6            1 RES     
    6896 H6         215.0597  -188.0186  -138.7366 H6            1 RES     
    6897 H6         216.5586  -185.9999  -139.1324 H6            1 RES     
    6898 H6         215.6778  -185.8727  -137.5725 H6            1 RES     
    6899 H6         217.4138  -186.3544  -137.5788 H6            1 RES     
    6900 C0         222.6744  -193.0438  -143.6897 C0            1 RES     
    6901 C0         222.1402  -194.5451  -143.6062 C0            1 RES     
    6902 C0         223.2084  -195.3500  -142.7917 C0            1 RES     
    6903 C0         223.0421  -196.8830  -142.8073 C0            1 RES     
    6904 C0         224.0986  -197.6314  -141.9755 C0            1 RES     
    6905 C0         225.5609  -197.4223  -142.4077 C0            1 RES     
    6906 C0         225.8533  -197.7170  -143.8884 C0            1 RES     
    6907 C0         225.4825  -199.1490  -144.3125 C0            1 RES     
    6908 C0         225.7761  -199.4257  -145.7960 C0            1 RES     
    6909 C0         227.2804  -199.4115  -146.1215 C0            1 RES     
    6910 C0         227.5840  -199.8104  -147.5741 C0            1 RES     
    6911 C0         227.0470  -198.8112  -148.5990 C0            1 RES     
    6912 C0         220.6677  -194.9728  -143.1990 C0            1 RES     
    6913 C0         220.1222  -194.7750  -141.7563 C0            1 RES     
    6914 C0         219.1051  -193.6232  -141.6671 C0            1 RES     
    6915 C0         218.5572  -193.3039  -140.2859 C0            1 RES     
    6916 C0         217.5628  -194.2918  -139.6922 C0            1 RES     
    6917 C0         217.0289  -193.6661  -138.3874 C0            1 RES     
    6918 C0         215.8963  -194.4518  -137.7239 C0            1 RES     
    6919 C0         214.6124  -194.4335  -138.5547 C0            1 RES     
    6920 H6         223.2972  -192.8369  -142.7884 H6            1 RES     
    6921 H6         223.4624  -193.0788  -144.4757 H6            1 RES     
    6922 H6         222.1920  -194.9010  -144.6611 H6            1 RES     
    6923 H6         223.1961  -195.0038  -141.7357 H6            1 RES     
    6924 H6         224.2076  -195.1139  -143.2170 H6            1 RES     
    6925 H6         223.0545  -197.2430  -143.8575 H6            1 RES     
    6926 H6         222.0759  -197.1699  -142.3491 H6            1 RES     
    6927 H6         223.8605  -198.7155  -142.0236 H6            1 RES     
    6928 H6         224.0055  -197.3294  -140.9091 H6            1 RES     
    6929 H6         226.1999  -198.0743  -141.7727 H6            1 RES     
    6930 H6         225.8578  -196.3721  -142.2002 H6            1 RES     
    6931 H6         225.3038  -196.9926  -144.5269 H6            1 RES     
    6932 H6         226.9387  -197.5454  -144.0385 H6            1 RES     
    6933 H6         224.3913  -199.2944  -144.1701 H6            1 RES     
    6934 H6         226.0177  -199.8892  -143.6792 H6            1 RES     
    6935 H6         225.3796  -200.4366  -146.0343 H6            1 RES     
    6936 H6         225.2288  -198.6827  -146.4142 H6            1 RES     
    6937 H6         227.7199  -198.4110  -145.9299 H6            1 RES     
    6938 H6         227.7840  -200.1480  -145.4580 H6            1 RES     
    6939 H6         227.1674  -200.8198  -147.7825 H6            1 RES     
    6940 H6         228.6878  -199.8605  -147.6928 H6            1 RES     
    6941 H6         225.9402  -198.7553  -148.5665 H6            1 RES     
    6942 H6         227.4734  -197.8027  -148.4119 H6            1 RES     
    6943 H6         227.3427  -199.1374  -149.6182 H6            1 RES     
    6944 H6         220.6356  -196.0636  -143.3756 H6            1 RES     
    6945 H6         219.9080  -194.6937  -143.9531 H6            1 RES     
    6946 H6         219.5349  -195.6813  -141.4898 H6            1 RES     
    6947 H6         220.9525  -194.6906  -141.0263 H6            1 RES     
    6948 H6         218.2645  -193.7961  -142.3769 H6            1 RES     
    6949 H6         219.5846  -192.6897  -141.9397 H6            1 RES     
    6950 H6         219.3953  -193.1040  -139.5835 H6            1 RES     
    6951 H6         217.9716  -192.3798  -140.4226 H6            1 RES     
    6952 H6         216.7400  -194.4265  -140.4257 H6            1 RES     
    6953 H6         218.0414  -195.2735  -139.4942 H6            1 RES     
    6954 H6         217.8767  -193.5857  -137.6720 H6            1 RES     
    6955 H6         216.6522  -192.6349  -138.5793 H6            1 RES     
    6956 H6         215.6729  -193.9546  -136.7545 H6            1 RES     
    6957 H6         216.2202  -195.4922  -137.5228 H6            1 RES     
    6958 H6         214.7498  -194.9513  -139.5247 H6            1 RES     
    6959 H6         213.8070  -194.9522  -137.9954 H6            1 RES     
    6960 H6         214.2906  -193.3858  -138.7433 H6            1 RES     
    6961 C0         227.2486  -187.7907  -155.1181 C0            1 RES     
    6962 C1         226.9310  -187.5598  -153.6243 C1            1 RES     
    6963 C1         227.7112  -186.5942  -153.0728 C1            1 RES     
    6964 S2         227.4562  -186.3832  -151.4318 S2            1 RES     
    6965 C1         226.2998  -187.6286  -151.3837 C1            1 RES     
    6966 C1         226.1352  -188.1915  -152.6541 C1            1 RES     
    6967 C1         228.6082  -186.1187  -154.0537 C1            1 RES     
    6968 C1         228.4364  -186.8308  -155.2002 C1            1 RES     
    6969 C1         229.3842  -186.5139  -156.1659 C1            1 RES     
    6970 C1         230.2473  -185.5077  -155.7004 C1            1 RES     
    6971 S2         229.8615  -185.0272  -154.1181 S2            1 RES     
    6972 H3         225.5026  -189.0440  -152.8134 H3            1 RES     
    6973 H3         229.4493  -186.9836  -157.1400 H3            1 RES     
    6974 N4         232.6129  -183.1844  -157.4488 N4            1 RES     
    6975 C1         231.4875  -183.6609  -156.8401 C1            1 RES     
    6976 C1         231.4226  -184.9922  -156.3937 C1            1 RES     
    6977 C1         232.5465  -185.8013  -156.5702 C1            1 RES     
    6978 N4         232.6361  -187.0842  -156.1347 N4            1 RES     
    6979 S2         234.1805  -187.4917  -156.5599 S2            1 RES     
    6980 N4         234.7659  -186.1224  -157.2816 N4            1 RES     
    6981 C1         233.7099  -185.2771  -157.1874 C1            1 RES     
    6982 C1         233.7179  -183.9592  -157.6369 C1            1 RES     
    6983 H5         230.6330  -183.0025  -156.7101 H5            1 RES     
    6984 C0         226.1978  -187.3746  -156.2070 C0            1 RES     
    6985 C0         225.7508  -185.9464  -156.6991 C0            1 RES     
    6986 C0         224.5792  -186.2101  -157.7091 C0            1 RES     
    6987 C0         223.9844  -184.9852  -158.4147 C0            1 RES     
    6988 C0         222.8063  -185.3587  -159.3449 C0            1 RES     
    6989 C0         223.1513  -186.2932  -160.5254 C0            1 RES     
    6990 C0         224.2875  -185.7947  -161.4357 C0            1 RES     
    6991 C0         224.0100  -184.4076  -162.0420 C0            1 RES     
    6992 C0         225.1691  -183.8883  -162.9047 C0            1 RES     
    6993 C0         225.3832  -184.7081  -164.1883 C0            1 RES     
    6994 C0         226.4686  -184.1124  -165.0989 C0            1 RES     
    6995 C0         227.8655  -184.1545  -164.4782 C0            1 RES     
    6996 C0         225.3844  -184.8470  -155.6492 C0            1 RES     
    6997 C0         224.1446  -185.0569  -154.7265 C0            1 RES     
    6998 C0         224.6040  -185.0332  -153.2655 C0            1 RES     
    6999 C0         223.6342  -185.5381  -152.2010 C0            1 RES     
    7000 C0         222.5450  -184.5697  -151.7635 C0            1 RES     
    7001 C0         221.7181  -185.2605  -150.6588 C0            1 RES     
    7002 C0         220.6973  -184.3491  -149.9735 C0            1 RES     
    7003 C0         221.3649  -183.2612  -149.1298 C0            1 RES     
    7004 H6         225.2887  -187.8500  -155.9399 H6            1 RES     
    7005 H6         226.5651  -187.8593  -157.1396 H6            1 RES     
    7006 H6         226.6117  -185.5206  -157.2613 H6            1 RES     
    7007 H6         223.7452  -186.7191  -157.1780 H6            1 RES     
    7008 H6         224.9549  -186.9068  -158.4887 H6            1 RES     
    7009 H6         224.7744  -184.4496  -158.9794 H6            1 RES     
    7010 H6         223.5686  -184.2926  -157.6552 H6            1 RES     
    7011 H6         222.3728  -184.4195  -159.7465 H6            1 RES     
    7012 H6         222.0047  -185.8439  -158.7451 H6            1 RES     
    7013 H6         222.2316  -186.4301  -161.1368 H6            1 RES     
    7014 H6         223.4321  -187.2963  -160.1391 H6            1 RES     
    7015 H6         225.2336  -185.7612  -160.8553 H6            1 RES     
    7016 H6         224.4135  -186.5431  -162.2454 H6            1 RES     
    7017 H6         223.8856  -183.6753  -161.2185 H6            1 RES     
    7018 H6         223.0707  -184.4275  -162.6370 H6            1 RES     
    7019 H6         224.9267  -182.8436  -163.1979 H6            1 RES     
    7020 H6         226.0905  -183.8711  -162.2855 H6            1 RES     
    7021 H6         225.6533  -185.7576  -163.9495 H6            1 RES     
    7022 H6         224.4286  -184.7125  -164.7584 H6            1 RES     
    7023 H6         226.2078  -183.0636  -165.3602 H6            1 RES     
    7024 H6         226.4951  -184.7057  -166.0383 H6            1 RES     
    7025 H6         227.9192  -183.5346  -163.5606 H6            1 RES     
    7026 H6         228.1440  -185.2013  -164.2327 H6            1 RES     
    7027 H6         228.6024  -183.7519  -165.2043 H6            1 RES     
    7028 H6         225.2141  -183.8984  -156.2021 H6            1 RES     
    7029 H6         226.2946  -184.6174  -155.0548 H6            1 RES     
    7030 H6         223.4022  -184.2401  -154.8704 H6            1 RES     
    7031 H6         223.6496  -186.0198  -154.9664 H6            1 RES     
    7032 H6         225.0507  -184.0576  -152.9798 H6            1 RES     
    7033 H6         225.3858  -185.7624  -153.2429 H6            1 RES     
    7034 H6         223.2064  -186.4886  -152.5292 H6            1 RES     
    7035 H6         224.2463  -185.7500  -151.2949 H6            1 RES     
    7036 H6         223.0510  -183.6626  -151.3704 H6            1 RES     
    7037 H6         221.8899  -184.2842  -152.6135 H6            1 RES     
    7038 H6         221.1801  -186.1200  -151.1192 H6            1 RES     
    7039 H6         222.3883  -185.6690  -149.8685 H6            1 RES     
    7040 H6         220.0921  -184.9782  -149.2842 H6            1 RES     
    7041 H6         220.0170  -183.8981  -150.7263 H6            1 RES     
    7042 H6         221.9576  -182.5666  -149.7570 H6            1 RES     
    7043 H6         220.5874  -182.6733  -148.6010 H6            1 RES     
    7044 H6         222.0329  -183.7233  -148.3689 H6            1 RES     
    7045 C0         227.6449  -189.3163  -155.2237 C0            1 RES     
    7046 C0         226.8026  -190.4463  -155.9720 C0            1 RES     
    7047 C0         227.2584  -191.8146  -155.3616 C0            1 RES     
    7048 C0         226.7764  -193.0725  -156.1121 C0            1 RES     
    7049 C0         227.2273  -194.3937  -155.4645 C0            1 RES     
    7050 C0         228.7486  -194.5994  -155.3547 C0            1 RES     
    7051 C0         229.5254  -194.4491  -156.6733 C0            1 RES     
    7052 C0         229.0436  -195.4037  -157.7800 C0            1 RES     
    7053 C0         229.8264  -195.2373  -159.0925 C0            1 RES     
    7054 C0         231.3002  -195.6636  -158.9689 C0            1 RES     
    7055 C0         232.0527  -195.6172  -160.3079 C0            1 RES     
    7056 C0         232.1969  -194.2030  -160.8703 C0            1 RES     
    7057 C0         225.2336  -190.4171  -156.2047 C0            1 RES     
    7058 C0         224.2243  -190.5453  -155.0287 C0            1 RES     
    7059 C0         223.5365  -189.2085  -154.6983 C0            1 RES     
    7060 C0         222.5761  -189.2095  -153.5204 C0            1 RES     
    7061 C0         221.2366  -189.9038  -153.7221 C0            1 RES     
    7062 C0         220.3866  -189.6189  -152.4670 C0            1 RES     
    7063 C0         218.9412  -190.1121  -152.5540 C0            1 RES     
    7064 C0         218.1250  -189.3387  -153.5908 C0            1 RES     
    7065 H6         227.8931  -189.6774  -154.1986 H6            1 RES     
    7066 H6         228.6490  -189.3634  -155.7027 H6            1 RES     
    7067 H6         227.1839  -190.4080  -157.0185 H6            1 RES     
    7068 H6         226.9097  -191.8762  -154.3081 H6            1 RES     
    7069 H6         228.3695  -191.8296  -155.3552 H6            1 RES     
    7070 H6         227.1197  -193.0250  -157.1668 H6            1 RES     
    7071 H6         225.6704  -193.1248  -156.1048 H6            1 RES     
    7072 H6         226.7934  -195.2264  -156.0584 H6            1 RES     
    7073 H6         226.7927  -194.4675  -154.4434 H6            1 RES     
    7074 H6         228.9254  -195.6162  -154.9408 H6            1 RES     
    7075 H6         229.1649  -193.8727  -154.6248 H6            1 RES     
    7076 H6         229.4459  -193.4013  -157.0340 H6            1 RES     
    7077 H6         230.5912  -194.6466  -156.4389 H6            1 RES     
    7078 H6         227.9813  -195.1788  -158.0106 H6            1 RES     
    7079 H6         229.1088  -196.4581  -157.4347 H6            1 RES     
    7080 H6         229.3420  -195.8830  -159.8571 H6            1 RES     
    7081 H6         229.7450  -194.1813  -159.4270 H6            1 RES     
    7082 H6         231.8390  -195.0266  -158.2377 H6            1 RES     
    7083 H6         231.3263  -196.7138  -158.6045 H6            1 RES     
    7084 H6         231.5391  -196.2645  -161.0515 H6            1 RES     
    7085 H6         233.0737  -196.0239  -160.1422 H6            1 RES     
    7086 H6         231.2085  -193.7604  -161.1077 H6            1 RES     
    7087 H6         232.7276  -193.5527  -160.1426 H6            1 RES     
    7088 H6         232.7886  -194.2407  -161.8090 H6            1 RES     
    7089 H6         225.0325  -191.2865  -156.8571 H6            1 RES     
    7090 H6         224.9131  -189.6370  -156.9205 H6            1 RES     
    7091 H6         223.3947  -191.2051  -155.3656 H6            1 RES     
    7092 H6         224.6978  -191.0290  -154.1504 H6            1 RES     
    7093 H6         223.0263  -188.8045  -155.6021 H6            1 RES     
    7094 H6         224.2784  -188.4835  -154.3825 H6            1 RES     
    7095 H6         223.0931  -189.5867  -152.6114 H6            1 RES     
    7096 H6         222.3118  -188.1494  -153.3725 H6            1 RES     
    7097 H6         220.7601  -189.4652  -154.6242 H6            1 RES     
    7098 H6         221.3687  -190.9956  -153.8720 H6            1 RES     
    7099 H6         220.8806  -190.1074  -151.5984 H6            1 RES     
    7100 H6         220.3541  -188.5238  -152.2629 H6            1 RES     
    7101 H6         218.4715  -189.9359  -151.5614 H6            1 RES     
    7102 H6         218.9209  -191.1990  -152.7684 H6            1 RES     
    7103 H6         218.5136  -189.5009  -154.6157 H6            1 RES     
    7104 H6         217.0716  -189.6850  -153.5600 H6            1 RES     
    7105 H6         218.1439  -188.2505  -153.3619 H6            1 RES     
    7106 C0         237.3765  -182.5027  -161.3881 C0            1 RES     
    7107 C1         236.5579  -182.7034  -160.0937 C1            1 RES     
    7108 C1         237.2520  -182.3458  -158.9821 C1            1 RES     
    7109 S2         236.4273  -182.6374  -157.5548 S2            1 RES     
    7110 C1         235.1001  -183.3063  -158.3807 C1            1 RES     
    7111 C1         235.3269  -183.2930  -159.7613 C1            1 RES     
    7112 C1         238.5430  -181.9245  -159.3677 C1            1 RES     
    7113 C1         238.6817  -182.0803  -160.7121 C1            1 RES     
    7114 C1         239.9770  -181.8199  -161.1432 C1            1 RES     
    7115 C1         240.7878  -181.4278  -160.0648 C1            1 RES     
    7116 S2         239.9290  -181.4185  -158.6000 S2            1 RES     
    7117 H3         234.6358  -183.7426  -160.4488 H3            1 RES     
    7118 H3         240.3133  -181.9127  -162.1690 H3            1 RES     
    7119 N4         244.1004  -179.6830  -159.8833 N4            1 RES     
    7120 C1         242.7513  -179.8928  -159.8754 C1            1 RES     
    7121 C1         242.2233  -181.1734  -160.1142 C1            1 RES     
    7122 C1         243.1165  -182.2231  -160.3358 C1            1 RES     
    7123 N4         242.7415  -183.5147  -160.5215 N4            1 RES     
    7124 S2         244.1967  -184.2854  -160.6631 S2            1 RES     
    7125 N4         245.3058  -183.0676  -160.5052 N4            1 RES     
    7126 C1         244.5134  -181.9830  -160.3195 C1            1 RES     
    7127 C1         244.9890  -180.6921  -160.1043 C1            1 RES     
    7128 H5         242.0834  -179.0559  -159.6908 H5            1 RES     
    7129 C0         236.9578  -181.3819  -162.4036 C0            1 RES     
    7130 C0         237.0684  -179.8141  -162.2941 C0            1 RES     
    7131 C0         236.3603  -179.2636  -163.5817 C0            1 RES     
    7132 C0         236.3775  -177.7435  -163.7850 C0            1 RES     
    7133 C0         235.6080  -177.3129  -165.0559 C0            1 RES     
    7134 C0         236.1722  -177.8385  -166.3944 C0            1 RES     
    7135 C0         237.6541  -177.5093  -166.6467 C0            1 RES     
    7136 C0         237.9516  -175.9998  -166.6087 C0            1 RES     
    7137 C0         239.4399  -175.6775  -166.8050 C0            1 RES     
    7138 C0         239.9531  -176.0203  -168.2138 C0            1 RES     
    7139 C0         241.4114  -175.5885  -168.4357 C0            1 RES     
    7140 C0         242.4055  -176.3513  -167.5591 C0            1 RES     
    7141 C0         236.5729  -179.0932  -160.9980 C0            1 RES     
    7142 C0         235.0575  -179.1394  -160.6318 C0            1 RES     
    7143 C0         234.8996  -179.7924  -159.2553 C0            1 RES     
    7144 C0         233.5042  -180.2413  -158.8308 C0            1 RES     
    7145 C0         232.5748  -179.1570  -158.3056 C0            1 RES     
    7146 C0         231.2501  -179.8327  -157.8934 C0            1 RES     
    7147 C0         230.2718  -178.9084  -157.1648 C0            1 RES     
    7148 C0         230.7778  -178.5049  -155.7783 C0            1 RES     
    7149 H6         235.9362  -181.5518  -162.6295 H6            1 RES     
    7150 H6         237.5443  -181.6127  -163.3215 H6            1 RES     
    7151 H6         238.1518  -179.5673  -162.3549 H6            1 RES     
    7152 H6         235.2946  -179.5813  -163.5781 H6            1 RES     
    7153 H6         236.8473  -179.7335  -164.4629 H6            1 RES     
    7154 H6         237.4230  -177.3750  -163.8168 H6            1 RES     
    7155 H6         235.8618  -177.2555  -162.9335 H6            1 RES     
    7156 H6         235.5867  -176.2039  -165.0870 H6            1 RES     
    7157 H6         234.5496  -177.6458  -164.9745 H6            1 RES     
    7158 H6         235.5607  -177.4084  -167.2188 H6            1 RES     
    7159 H6         236.0491  -178.9414  -166.4452 H6            1 RES     
    7160 H6         238.2785  -178.0277  -165.8886 H6            1 RES     
    7161 H6         237.9186  -177.9221  -167.6424 H6            1 RES     
    7162 H6         237.6797  -175.6063  -165.6081 H6            1 RES     
    7163 H6         237.3422  -175.4671  -167.3712 H6            1 RES     
    7164 H6         239.5701  -174.5849  -166.6459 H6            1 RES     
    7165 H6         240.0233  -176.2143  -166.0277 H6            1 RES     
    7166 H6         239.8680  -177.1085  -168.4142 H6            1 RES     
    7167 H6         239.3236  -175.4773  -168.9521 H6            1 RES     
    7168 H6         241.5134  -174.4966  -168.2523 H6            1 RES     
    7169 H6         241.6722  -175.7859  -169.4978 H6            1 RES     
    7170 H6         242.2307  -176.1527  -166.4825 H6            1 RES     
    7171 H6         242.3259  -177.4425  -167.7505 H6            1 RES     
    7172 H6         243.4375  -176.0224  -167.8026 H6            1 RES     
    7173 H6         236.8479  -178.0203  -161.0848 H6            1 RES     
    7174 H6         237.2031  -179.4339  -160.1488 H6            1 RES     
    7175 H6         234.6322  -178.1120  -160.5797 H6            1 RES     
    7176 H6         234.4964  -179.7069  -161.4018 H6            1 RES     
    7177 H6         235.4024  -179.2120  -158.4533 H6            1 RES     
    7178 H6         235.4271  -180.7164  -159.3608 H6            1 RES     
    7179 H6         233.0406  -180.7921  -159.6528 H6            1 RES     
    7180 H6         233.6483  -180.9619  -157.9938 H6            1 RES     
    7181 H6         233.0732  -178.6946  -157.4273 H6            1 RES     
    7182 H6         232.3868  -178.3764  -159.0727 H6            1 RES     
    7183 H6         230.7600  -180.2189  -158.8159 H6            1 RES     
    7184 H6         231.4478  -180.7043  -157.2288 H6            1 RES     
    7185 H6         229.3218  -179.4685  -157.0207 H6            1 RES     
    7186 H6         230.0598  -178.0093  -157.7808 H6            1 RES     
    7187 H6         231.7070  -177.9051  -155.8432 H6            1 RES     
    7188 H6         230.0065  -177.8950  -155.2656 H6            1 RES     
    7189 H6         230.9732  -179.4119  -155.1636 H6            1 RES     
    7190 C0         237.4337  -183.9292  -162.0643 C0            1 RES     
    7191 C0         236.7250  -184.3381  -163.4343 C0            1 RES     
    7192 C0         236.5892  -185.8981  -163.4135 C0            1 RES     
    7193 C0         236.1747  -186.5487  -164.7488 C0            1 RES     
    7194 C0         236.0304  -188.0791  -164.6762 C0            1 RES     
    7195 C0         237.2999  -188.8521  -164.2766 C0            1 RES     
    7196 C0         238.5440  -188.5509  -165.1287 C0            1 RES     
    7197 C0         238.3367  -188.8164  -166.6302 C0            1 RES     
    7198 C0         239.5874  -188.5057  -167.4683 C0            1 RES     
    7199 C0         240.7601  -189.4566  -167.1692 C0            1 RES     
    7200 C0         241.9676  -189.2293  -168.0920 C0            1 RES     
    7201 C0         242.6303  -187.8659  -167.8937 C0            1 RES     
    7202 C0         235.4221  -183.6576  -164.0311 C0            1 RES     
    7203 C0         234.0313  -183.8052  -163.3515 C0            1 RES     
    7204 C0         233.5838  -182.5126  -162.6456 C0            1 RES     
    7205 C0         232.2641  -182.5689  -161.8940 C0            1 RES     
    7206 C0         230.9935  -182.6083  -162.7315 C0            1 RES     
    7207 C0         229.8054  -182.4847  -161.7558 C0            1 RES     
    7208 C0         228.4399  -182.3511  -162.4323 C0            1 RES     
    7209 C0         228.2894  -181.0255  -163.1801 C0            1 RES     
    7210 H6         237.1730  -184.6866  -161.2888 H6            1 RES     
    7211 H6         238.5076  -184.1722  -162.2305 H6            1 RES     
    7212 H6         237.4845  -184.0829  -164.2089 H6            1 RES     
    7213 H6         235.8509  -186.1879  -162.6349 H6            1 RES     
    7214 H6         237.5753  -186.3204  -163.1233 H6            1 RES     
    7215 H6         236.9056  -186.2688  -165.5361 H6            1 RES     
    7216 H6         235.1730  -186.1913  -165.0564 H6            1 RES     
    7217 H6         235.6917  -188.4341  -165.6730 H6            1 RES     
    7218 H6         235.2254  -188.3367  -163.9532 H6            1 RES     
    7219 H6         237.0701  -189.9384  -164.3374 H6            1 RES     
    7220 H6         237.5462  -188.6293  -163.2164 H6            1 RES     
    7221 H6         238.8467  -187.4920  -164.9829 H6            1 RES     
    7222 H6         239.3598  -189.1931  -164.7386 H6            1 RES     
    7223 H6         237.5287  -188.1532  -167.0038 H6            1 RES     
    7224 H6         238.0258  -189.8706  -166.7959 H6            1 RES     
    7225 H6         239.3119  -188.6216  -168.5392 H6            1 RES     
    7226 H6         239.8799  -187.4479  -167.2970 H6            1 RES     
    7227 H6         241.0953  -189.3565  -166.1163 H6            1 RES     
    7228 H6         240.4077  -190.4994  -167.3268 H6            1 RES     
    7229 H6         241.6574  -189.3431  -169.1534 H6            1 RES     
    7230 H6         242.7239  -190.0119  -167.8669 H6            1 RES     
    7231 H6         241.9391  -187.0395  -168.1551 H6            1 RES     
    7232 H6         242.9626  -187.7502  -166.8401 H6            1 RES     
    7233 H6         243.5185  -187.7907  -168.5557 H6            1 RES     
    7234 H6         235.3060  -184.1094  -165.0333 H6            1 RES     
    7235 H6         235.5897  -182.6188  -164.3723 H6            1 RES     
    7236 H6         233.2766  -183.9548  -164.1548 H6            1 RES     
    7237 H6         234.0022  -184.7002  -162.6975 H6            1 RES     
    7238 H6         233.5725  -181.6642  -163.3670 H6            1 RES     
    7239 H6         234.2828  -182.2674  -161.8538 H6            1 RES     
    7240 H6         232.2852  -183.3985  -161.1542 H6            1 RES     
    7241 H6         232.2049  -181.6075  -161.3576 H6            1 RES     
    7242 H6         231.0193  -181.7429  -163.4269 H6            1 RES     
    7243 H6         230.9283  -183.5480  -163.3185 H6            1 RES     
    7244 H6         229.7973  -183.3880  -161.1068 H6            1 RES     
    7245 H6         229.9389  -181.5974  -161.0948 H6            1 RES     
    7246 H6         227.6702  -182.3700  -161.6297 H6            1 RES     
    7247 H6         228.2650  -183.2085  -163.1121 H6            1 RES     
    7248 H6         229.0025  -180.9537  -164.0252 H6            1 RES     
    7249 H6         227.2602  -180.9494  -163.5870 H6            1 RES     
    7250 H6         228.4575  -180.1715  -162.4878 H6            1 RES     
    7251 C0         250.0496  -179.4772  -161.6828 C0            1 RES     
    7252 C1         248.7665  -179.7983  -160.8851 C1            1 RES     
    7253 C1         249.0293  -180.1280  -159.5938 C1            1 RES     
    7254 S2         247.6683  -180.5713  -158.7256 S2            1 RES     
    7255 C1         246.6594  -180.3773  -160.0803 C1            1 RES     
    7256 C1         247.4065  -179.9715  -161.1915 C1            1 RES     
    7257 C1         250.4264  -180.1037  -159.3932 C1            1 RES     
    7258 C1         251.0432  -179.8242  -160.5731 C1            1 RES     
    7259 C1         252.4263  -179.9248  -160.4830 C1            1 RES     
    7260 C1         252.8140  -180.2560  -159.1737 C1            1 RES     
    7261 S2         251.4746  -180.4398  -158.1462 S2            1 RES     
    7262 H3         246.9597  -179.8690  -162.1622 H3            1 RES     
    7263 H3         253.1085  -179.7735  -161.3110 H3            1 RES     
    7264 N4         256.0865  -180.0251  -157.3605 N4            1 RES     
    7265 C1         254.8325  -179.7148  -157.8026 C1            1 RES     
    7266 C1         254.1712  -180.5450  -158.7241 C1            1 RES     
    7267 C1         254.8230  -181.7024  -159.1535 C1            1 RES     
    7268 N4         254.2748  -182.6166  -159.9945 N4            1 RES     
    7269 S2         255.4588  -183.7666  -160.0821 S2            1 RES     
    7270 N4         256.6568  -183.1755  -159.1056 N4            1 RES     
    7271 C1         256.1168  -182.0124  -158.6645 C1            1 RES     
    7272 C1         256.7429  -181.1460  -157.7723 C1            1 RES     
    7273 H5         254.3493  -178.8110  -157.4419 H5            1 RES     
    7274 C0         250.3227  -178.0045  -162.1511 C0            1 RES     
    7275 C0         250.7257  -176.7286  -161.3196 C0            1 RES     
    7276 C0         250.7208  -175.5484  -162.3537 C0            1 RES     
    7277 C0         251.1528  -174.1713  -161.8347 C0            1 RES     
    7278 C0         251.0599  -173.0780  -162.9251 C0            1 RES     
    7279 C0         251.9723  -173.2759  -164.1557 C0            1 RES     
    7280 C0         253.4672  -173.4473  -163.8330 C0            1 RES     
    7281 C0         254.0523  -172.2654  -163.0397 C0            1 RES     
    7282 C0         255.5294  -172.4644  -162.6708 C0            1 RES     
    7283 C0         256.4643  -172.4614  -163.8920 C0            1 RES     
    7284 C0         257.9489  -172.5459  -163.5032 C0            1 RES     
    7285 C0         258.3234  -173.8721  -162.8403 C0            1 RES     
    7286 C0         249.9346  -176.3724  -160.0187 C0            1 RES     
    7287 C0         248.4278  -175.9838  -160.1250 C0            1 RES     
    7288 C0         247.6021  -176.9659  -159.2886 C0            1 RES     
    7289 C0         246.0904  -176.9893  -159.4960 C0            1 RES     
    7290 C0         245.2948  -175.8937  -158.8015 C0            1 RES     
    7291 C0         243.8008  -176.1346  -159.1035 C0            1 RES     
    7292 C0         242.8464  -175.2297  -158.3209 C0            1 RES     
    7293 C0         242.8434  -175.5459  -156.8238 C0            1 RES     
    7294 H6         249.4616  -177.6989  -162.6886 H6            1 RES     
    7295 H6         251.1553  -178.1014  -162.8841 H6            1 RES     
    7296 H6         251.7715  -176.8913  -160.9754 H6            1 RES     
    7297 H6         249.6977  -175.4336  -162.7740 H6            1 RES     
    7298 H6         251.3972  -175.8280  -163.1896 H6            1 RES     
    7299 H6         252.1802  -174.2250  -161.4208 H6            1 RES     
    7300 H6         250.4664  -173.8552  -161.0235 H6            1 RES     
    7301 H6         251.2988  -172.1014  -162.4555 H6            1 RES     
    7302 H6         250.0093  -173.0059  -163.2840 H6            1 RES     
    7303 H6         251.8452  -172.3953  -164.8242 H6            1 RES     
    7304 H6         251.6380  -174.1660  -164.7303 H6            1 RES     
    7305 H6         253.6122  -174.3859  -163.2577 H6            1 RES     
    7306 H6         254.0025  -173.5564  -164.7991 H6            1 RES     
    7307 H6         253.5041  -172.1718  -162.0801 H6            1 RES     
    7308 H6         253.9254  -171.3182  -163.6085 H6            1 RES     
    7309 H6         255.8252  -171.6232  -162.0066 H6            1 RES     
    7310 H6         255.6263  -173.4106  -162.0980 H6            1 RES     
    7311 H6         256.2259  -173.3009  -164.5774 H6            1 RES     
    7312 H6         256.3124  -171.5064  -164.4408 H6            1 RES     
    7313 H6         258.2099  -171.7035  -162.8261 H6            1 RES     
    7314 H6         258.5547  -172.4448  -164.4294 H6            1 RES     
    7315 H6         257.7890  -174.0088  -161.8787 H6            1 RES     
    7316 H6         258.0856  -174.7194  -163.5180 H6            1 RES     
    7317 H6         259.4131  -173.8819  -162.6283 H6            1 RES     
    7318 H6         250.4519  -175.5163  -159.5351 H6            1 RES     
    7319 H6         250.0885  -177.1912  -159.2836 H6            1 RES     
    7320 H6         248.2554  -174.9585  -159.7274 H6            1 RES     
    7321 H6         248.1034  -176.0022  -161.1852 H6            1 RES     
    7322 H6         247.8649  -176.9261  -158.2105 H6            1 RES     
    7323 H6         247.9097  -177.9210  -159.6582 H6            1 RES     
    7324 H6         245.8770  -177.0110  -160.5674 H6            1 RES     
    7325 H6         245.7310  -177.9539  -159.0707 H6            1 RES     
    7326 H6         245.4976  -175.9806  -157.7130 H6            1 RES     
    7327 H6         245.6009  -174.8853  -159.1516 H6            1 RES     
    7328 H6         243.6397  -175.9698  -160.1930 H6            1 RES     
    7329 H6         243.5234  -177.1898  -158.8794 H6            1 RES     
    7330 H6         241.8176  -175.4153  -158.7007 H6            1 RES     
    7331 H6         243.0981  -174.1623  -158.4948 H6            1 RES     
    7332 H6         243.8313  -175.3457  -156.3641 H6            1 RES     
    7333 H6         242.0888  -174.9137  -156.3133 H6            1 RES     
    7334 H6         242.5757  -176.6135  -156.6590 H6            1 RES     
    7335 C0         250.0500  -180.4967  -162.8896 C0            1 RES     
    7336 C0         249.8643  -180.1166  -164.4282 C0            1 RES     
    7337 C0         249.3893  -181.4216  -165.1519 C0            1 RES     
    7338 C0         249.3991  -181.3701  -166.6931 C0            1 RES     
    7339 C0         248.9027  -182.6644  -167.3615 C0            1 RES     
    7340 C0         249.7079  -183.9354  -167.0375 C0            1 RES     
    7341 C0         251.2197  -183.8364  -167.3011 C0            1 RES     
    7342 C0         251.5649  -183.4706  -168.7555 C0            1 RES     
    7343 C0         253.0791  -183.3706  -169.0011 C0            1 RES     
    7344 C0         253.7980  -184.7251  -168.8687 C0            1 RES     
    7345 C0         255.2884  -184.6520  -169.2356 C0            1 RES     
    7346 C0         256.1043  -183.7857  -168.2760 C0            1 RES     
    7347 C0         249.0861  -178.8451  -164.9708 C0            1 RES     
    7348 C0         247.5451  -178.6980  -164.8232 C0            1 RES     
    7349 C0         247.1550  -177.6615  -163.7541 C0            1 RES     
    7350 C0         245.6695  -177.4866  -163.4852 C0            1 RES     
    7351 C0         244.8552  -176.7655  -164.5502 C0            1 RES     
    7352 C0         243.4390  -176.5608  -163.9743 C0            1 RES     
    7353 C0         242.5150  -175.7112  -164.8488 C0            1 RES     
    7354 C0         242.9678  -174.2524  -164.9260 C0            1 RES     
    7355 H6         249.3452  -181.3236  -162.6396 H6            1 RES     
    7356 H6         251.0201  -181.0426  -162.8594 H6            1 RES     
    7357 H6         250.9028  -179.9065  -164.7737 H6            1 RES     
    7358 H6         248.3605  -181.6707  -164.8130 H6            1 RES     
    7359 H6         250.0622  -182.2480  -164.8369 H6            1 RES     
    7360 H6         250.4225  -181.1238  -167.0458 H6            1 RES     
    7361 H6         248.7046  -180.5880  -167.0563 H6            1 RES     
    7362 H6         248.9127  -182.5023  -168.4605 H6            1 RES     
    7363 H6         247.8433  -182.8419  -167.0730 H6            1 RES     
    7364 H6         249.2859  -184.7686  -167.6411 H6            1 RES     
    7365 H6         249.5612  -184.1997  -165.9685 H6            1 RES     
    7366 H6         251.6673  -183.0829  -166.6184 H6            1 RES     
    7367 H6         251.6526  -184.8249  -167.0451 H6            1 RES     
    7368 H6         251.1371  -182.4725  -168.9858 H6            1 RES     
    7369 H6         251.1188  -184.2101  -169.4551 H6            1 RES     
    7370 H6         253.2277  -182.9995  -170.0386 H6            1 RES     
    7371 H6         253.5074  -182.6233  -168.2998 H6            1 RES     
    7372 H6         253.7063  -185.1255  -167.8381 H6            1 RES     
    7373 H6         253.3142  -185.4423  -169.5673 H6            1 RES     
    7374 H6         255.4027  -184.2697  -170.2732 H6            1 RES     
    7375 H6         255.7018  -185.6830  -169.1994 H6            1 RES     
    7376 H6         255.7729  -182.7281  -168.3062 H6            1 RES     
    7377 H6         256.0132  -184.1717  -167.2384 H6            1 RES     
    7378 H6         257.1736  -183.8172  -168.5731 H6            1 RES     
    7379 H6         249.2756  -178.8463  -166.0599 H6            1 RES     
    7380 H6         249.5998  -177.8911  -164.7477 H6            1 RES     
    7381 H6         247.1535  -178.2730  -165.7736 H6            1 RES     
    7382 H6         247.0643  -179.6866  -164.6783 H6            1 RES     
    7383 H6         247.6160  -176.6751  -163.9882 H6            1 RES     
    7384 H6         247.5227  -177.9795  -162.7849 H6            1 RES     
    7385 H6         245.2143  -178.4667  -163.2244 H6            1 RES     
    7386 H6         245.6192  -176.8198  -162.6087 H6            1 RES     
    7387 H6         245.3427  -175.7869  -164.7447 H6            1 RES     
    7388 H6         244.8191  -177.3504  -165.4928 H6            1 RES     
    7389 H6         242.9770  -177.5626  -163.8320 H6            1 RES     
    7390 H6         243.4955  -176.0717  -162.9745 H6            1 RES     
    7391 H6         241.5088  -175.7231  -164.3752 H6            1 RES     
    7392 H6         242.4358  -176.1528  -165.8620 H6            1 RES     
    7393 H6         243.9520  -174.1594  -165.4267 H6            1 RES     
    7394 H6         242.2256  -173.6690  -165.5083 H6            1 RES     
    7395 H6         243.0355  -173.8157  -163.9054 H6            1 RES     
    7396 C0         262.1492  -181.4047  -157.2405 C0            1 RES     
    7397 C1         260.6196  -181.4878  -157.0424 C1            1 RES     
    7398 C1         260.2744  -182.3153  -156.0220 C1            1 RES     
    7399 S2         258.6206  -182.4999  -155.8396 S2            1 RES     
    7400 C1         258.2944  -181.4943  -157.1712 C1            1 RES     
    7401 C1         259.4873  -181.0332  -157.7388 C1            1 RES     
    7402 C1         261.4483  -182.8756  -155.4735 C1            1 RES     
    7403 C1         262.5239  -182.4522  -156.1909 C1            1 RES     
    7404 C1         263.7010  -183.0769  -155.7968 C1            1 RES     
    7405 C1         263.4599  -183.9577  -154.7289 C1            1 RES     
    7406 S2         261.8204  -183.9811  -154.2877 S2            1 RES     
    7407 H3         259.4921  -180.4454  -158.6369 H3            1 RES     
    7408 H3         264.6684  -182.9098  -156.2551 H3            1 RES     
    7409 N4         265.7211  -185.5841  -152.2205 N4            1 RES     
    7410 C1         264.8439  -184.7038  -152.7859 C1            1 RES     
    7411 C1         264.4311  -184.8601  -154.1204 C1            1 RES     
    7412 C1         264.9251  -185.9502  -154.8391 C1            1 RES     
    7413 N4         264.5632  -186.2483  -156.1133 N4            1 RES     
    7414 S2         265.3997  -187.6452  -156.3976 S2            1 RES     
    7415 N4         266.2169  -187.9111  -154.9835 N4            1 RES     
    7416 C1         265.8196  -186.8611  -154.2231 C1            1 RES     
    7417 C1         266.2203  -186.6505  -152.9064 C1            1 RES     
    7418 H5         264.4712  -183.8707  -152.1963 H5            1 RES     
    7419 C0         262.9030  -180.0706  -156.9017 C0            1 RES     
    7420 C0         263.2192  -179.4036  -155.5100 C0            1 RES     
    7421 C0         263.8821  -178.0247  -155.8587 C0            1 RES     
    7422 C0         264.3692  -177.1728  -154.6801 C0            1 RES     
    7423 C0         264.9564  -175.8173  -155.1391 C0            1 RES     
    7424 C0         266.2098  -175.8971  -156.0382 C0            1 RES     
    7425 C0         267.3798  -176.7043  -155.4486 C0            1 RES     
    7426 C0         267.8527  -176.1720  -154.0842 C0            1 RES     
    7427 C0         268.9825  -177.0126  -153.4722 C0            1 RES     
    7428 C0         270.2970  -176.9303  -154.2665 C0            1 RES     
    7429 C0         271.4510  -177.6817  -153.5838 C0            1 RES     
    7430 C0         271.2314  -179.1936  -153.5206 C0            1 RES     
    7431 C0         262.0814  -179.2559  -154.4476 C0            1 RES     
    7432 C0         260.8641  -178.3313  -154.7576 C0            1 RES     
    7433 C0         259.5812  -179.1665  -154.7057 C0            1 RES     
    7434 C0         258.3079  -178.5611  -155.2896 C0            1 RES     
    7435 C0         257.5679  -177.5633  -154.4108 C0            1 RES     
    7436 C0         256.2992  -177.1197  -155.1691 C0            1 RES     
    7437 C0         255.3407  -176.2589  -154.3431 C0            1 RES     
    7438 C0         254.6805  -177.0486  -153.2109 C0            1 RES     
    7439 H6         262.4130  -179.3053  -157.4475 H6            1 RES     
    7440 H6         263.9124  -180.2059  -157.3518 H6            1 RES     
    7441 H6         263.9818  -180.0463  -155.0159 H6            1 RES     
    7442 H6         263.1591  -177.4055  -156.4335 H6            1 RES     
    7443 H6         264.7519  -178.2251  -156.5203 H6            1 RES     
    7444 H6         265.1121  -177.7387  -154.0820 H6            1 RES     
    7445 H6         263.5081  -176.9288  -154.0257 H6            1 RES     
    7446 H6         265.2017  -175.2236  -154.2344 H6            1 RES     
    7447 H6         264.1752  -175.2461  -155.6881 H6            1 RES     
    7448 H6         266.5538  -174.8587  -156.2430 H6            1 RES     
    7449 H6         265.9397  -176.3448  -157.0184 H6            1 RES     
    7450 H6         267.0756  -177.7672  -155.3447 H6            1 RES     
    7451 H6         268.2125  -176.6607  -156.1809 H6            1 RES     
    7452 H6         267.0075  -176.2221  -153.3678 H6            1 RES     
    7453 H6         268.1725  -175.1107  -154.1738 H6            1 RES     
    7454 H6         269.1724  -176.6240  -152.4479 H6            1 RES     
    7455 H6         268.6346  -178.0635  -153.3867 H6            1 RES     
    7456 H6         270.1671  -177.3312  -155.2930 H6            1 RES     
    7457 H6         270.5882  -175.8599  -154.3421 H6            1 RES     
    7458 H6         271.6050  -177.2836  -152.5571 H6            1 RES     
    7459 H6         272.3777  -177.4960  -154.1686 H6            1 RES     
    7460 H6         270.3467  -179.4484  -152.9030 H6            1 RES     
    7461 H6         271.0973  -179.6042  -154.5439 H6            1 RES     
    7462 H6         272.1188  -179.6746  -153.0584 H6            1 RES     
    7463 H6         262.5431  -178.8730  -153.5123 H6            1 RES     
    7464 H6         261.7490  -180.2737  -154.1511 H6            1 RES     
    7465 H6         260.7813  -177.5199  -154.0001 H6            1 RES     
    7466 H6         260.9864  -177.8618  -155.7548 H6            1 RES     
    7467 H6         259.4016  -179.6011  -153.6999 H6            1 RES     
    7468 H6         259.7892  -179.9764  -155.3721 H6            1 RES     
    7469 H6         258.5329  -178.1312  -156.2687 H6            1 RES     
    7470 H6         257.6064  -179.4098  -155.4579 H6            1 RES     
    7471 H6         257.3026  -178.0891  -153.4691 H6            1 RES     
    7472 H6         258.2019  -176.6833  -154.1726 H6            1 RES     
    7473 H6         256.6194  -176.5416  -156.0655 H6            1 RES     
    7474 H6         255.7299  -178.0071  -155.5283 H6            1 RES     
    7475 H6         254.5301  -175.9110  -155.0207 H6            1 RES     
    7476 H6         255.8700  -175.3689  -153.9424 H6            1 RES     
    7477 H6         255.4263  -177.3966  -152.4693 H6            1 RES     
    7478 H6         253.9466  -176.4026  -152.6877 H6            1 RES     
    7479 H6         254.1403  -177.9298  -153.6236 H6            1 RES     
    7480 C0         262.3972  -181.8683  -158.7302 C0            1 RES     
    7481 C0         262.9193  -180.9399  -159.9184 C0            1 RES     
    7482 C0         262.4901  -181.6430  -161.2502 C0            1 RES     
    7483 C0         263.1150  -181.0692  -162.5380 C0            1 RES     
    7484 C0         262.6474  -181.7743  -163.8235 C0            1 RES     
    7485 C0         262.9575  -183.2793  -163.9111 C0            1 RES     
    7486 C0         264.4324  -183.6564  -163.6944 C0            1 RES     
    7487 C0         265.3923  -182.9640  -164.6779 C0            1 RES     
    7488 C0         266.8627  -183.3475  -164.4448 C0            1 RES     
    7489 C0         267.1524  -184.8267  -164.7562 C0            1 RES     
    7490 C0         268.6430  -185.1828  -164.6448 C0            1 RES     
    7491 C0         269.1868  -185.0651  -163.2209 C0            1 RES     
    7492 C0         262.7192  -179.3688  -160.0098 C0            1 RES     
    7493 C0         261.3182  -178.7282  -160.2217 C0            1 RES     
    7494 C0         260.7802  -178.0596  -158.9439 C0            1 RES     
    7495 C0         259.3872  -177.4572  -159.0253 C0            1 RES     
    7496 C0         259.2379  -176.1678  -159.8204 C0            1 RES     
    7497 C0         257.7930  -175.6712  -159.6085 C0            1 RES     
    7498 C0         257.4995  -174.2964  -160.2119 C0            1 RES     
    7499 C0         258.2573  -173.1754  -159.4989 C0            1 RES     
    7500 H6         261.4867  -182.4108  -159.0761 H6            1 RES     
    7501 H6         263.1304  -182.7057  -158.6969 H6            1 RES     
    7502 H6         264.0286  -181.0194  -159.8454 H6            1 RES     
    7503 H6         261.3836  -181.5984  -161.3440 H6            1 RES     
    7504 H6         262.7841  -182.7123  -161.1791 H6            1 RES     
    7505 H6         264.2216  -181.1094  -162.4587 H6            1 RES     
    7506 H6         262.8109  -180.0135  -162.6760 H6            1 RES     
    7507 H6         263.1235  -181.2580  -164.6843 H6            1 RES     
    7508 H6         261.5491  -181.6393  -163.9358 H6            1 RES     
    7509 H6         262.6330  -183.6357  -164.9132 H6            1 RES     
    7510 H6         262.3485  -183.8234  -163.1580 H6            1 RES     
    7511 H6         264.7311  -183.4056  -162.6541 H6            1 RES     
    7512 H6         264.4995  -184.7575  -163.8098 H6            1 RES     
    7513 H6         265.3219  -181.8655  -164.5350 H6            1 RES     
    7514 H6         265.1048  -183.1975  -165.7259 H6            1 RES     
    7515 H6         267.4846  -182.7227  -165.1223 H6            1 RES     
    7516 H6         267.1354  -183.1013  -163.3966 H6            1 RES     
    7517 H6         266.5774  -185.4954  -164.0829 H6            1 RES     
    7518 H6         266.8357  -185.0275  -165.8030 H6            1 RES     
    7519 H6         269.2369  -184.5357  -165.3263 H6            1 RES     
    7520 H6         268.7695  -186.2374  -164.9719 H6            1 RES     
    7521 H6         269.1371  -184.0197  -162.8551 H6            1 RES     
    7522 H6         268.6128  -185.7240  -162.5350 H6            1 RES     
    7523 H6         270.2510  -185.3813  -163.2079 H6            1 RES     
    7524 H6         263.3155  -179.0627  -160.8889 H6            1 RES     
    7525 H6         263.3016  -178.8100  -159.2533 H6            1 RES     
    7526 H6         261.4357  -177.8890  -160.9422 H6            1 RES     
    7527 H6         260.6131  -179.4561  -160.6716 H6            1 RES     
    7528 H6         261.5020  -177.2954  -158.5762 H6            1 RES     
    7529 H6         260.6576  -178.8041  -158.1652 H6            1 RES     
    7530 H6         258.6614  -178.2273  -159.3658 H6            1 RES     
    7531 H6         259.1461  -177.1659  -157.9897 H6            1 RES     
    7532 H6         259.9663  -175.4338  -159.4155 H6            1 RES     
    7533 H6         259.4459  -176.3339  -160.8979 H6            1 RES     
    7534 H6         257.1028  -176.4165  -160.0616 H6            1 RES     
    7535 H6         257.5595  -175.6151  -158.5203 H6            1 RES     
    7536 H6         256.4128  -174.1018  -160.0776 H6            1 RES     
    7537 H6         257.7285  -174.2985  -161.2960 H6            1 RES     
    7538 H6         259.3529  -173.2825  -159.6254 H6            1 RES     
    7539 H6         257.9524  -172.1981  -159.9260 H6            1 RES     
    7540 H6         258.0140  -173.1758  -158.4137 H6            1 RES     
    7541 C0         270.7807  -189.0385  -151.1518 C0            1 RES     
    7542 C1         269.3191  -188.6184  -151.4218 C1            1 RES     
    7543 C1         268.4272  -189.5596  -151.0170 C1            1 RES     
    7544 S2         266.8383  -189.1762  -151.3789 S2            1 RES     
    7545 C1         267.2924  -187.7276  -152.1445 C1            1 RES     
    7546 C1         268.6822  -187.5701  -152.1068 C1            1 RES     
    7547 C1         269.1358  -190.6633  -150.4950 C1            1 RES     
    7548 C1         270.4713  -190.4435  -150.6328 C1            1 RES     
    7549 C1         271.2290  -191.5507  -150.2706 C1            1 RES     
    7550 C1         270.3997  -192.5925  -149.8222 C1            1 RES     
    7551 S2         268.7577  -192.1645  -149.8868 S2            1 RES     
    7552 H3         269.1691  -186.7535  -152.6051 H3            1 RES     
    7553 H3         272.3095  -191.6023  -150.3319 H3            1 RES     
    7554 N4         271.0737  -195.6932  -147.8267 N4            1 RES     
    7555 C1         270.7075  -194.4159  -148.1406 C1            1 RES     
    7556 C1         270.8280  -193.9382  -149.4570 C1            1 RES     
    7557 C1         271.3094  -194.8124  -150.4332 C1            1 RES     
    7558 N4         271.4203  -194.4968  -151.7490 N4            1 RES     
    7559 S2         271.9691  -195.9116  -152.4039 S2            1 RES     
    7560 N4         272.0849  -196.9297  -151.1045 N4            1 RES     
    7561 C1         271.6644  -196.1400  -150.0856 C1            1 RES     
    7562 C1         271.5522  -196.5601  -148.7628 C1            1 RES     
    7563 H5         270.3280  -193.7634  -147.3589 H5            1 RES     
    7564 C0         271.6163  -188.2794  -150.0617 C0            1 RES     
    7565 C0         271.5003  -188.3002  -148.4907 C0            1 RES     
    7566 C0         272.5343  -187.2313  -147.9902 C0            1 RES     
    7567 C0         272.6954  -187.0814  -146.4724 C0            1 RES     
    7568 C0         273.7001  -185.9668  -146.0964 C0            1 RES     
    7569 C0         275.1542  -186.1841  -146.5700 C0            1 RES     
    7570 C0         275.7884  -187.5139  -146.1257 C0            1 RES     
    7571 C0         275.7931  -187.6991  -144.5978 C0            1 RES     
    7572 C0         276.3754  -189.0507  -144.1601 C0            1 RES     
    7573 C0         277.8787  -189.1866  -144.4550 C0            1 RES     
    7574 C0         278.4746  -190.4945  -143.9104 C0            1 RES     
    7575 C0         277.9188  -191.7420  -144.5981 C0            1 RES     
    7576 C0         270.1004  -188.1231  -147.8168 C0            1 RES     
    7577 C0         269.3402  -186.7712  -147.9822 C0            1 RES     
    7578 C0         267.9895  -187.0406  -148.6524 C0            1 RES     
    7579 C0         267.2159  -185.8493  -149.2103 C0            1 RES     
    7580 C0         266.4316  -185.0201  -148.2039 C0            1 RES     
    7581 C0         265.6949  -183.9099  -148.9824 C0            1 RES     
    7582 C0         264.7057  -183.1007  -148.1404 C0            1 RES     
    7583 C0         263.4972  -183.9325  -147.7058 C0            1 RES     
    7584 H6         271.5625  -187.2500  -150.3092 H6            1 RES     
    7585 H6         272.6640  -188.6104  -150.2417 H6            1 RES     
    7586 H6         271.8447  -189.3055  -148.1603 H6            1 RES     
    7587 H6         272.2516  -186.2328  -148.3896 H6            1 RES     
    7588 H6         273.5261  -187.4943  -148.4166 H6            1 RES     
    7589 H6         272.9986  -188.0492  -146.0238 H6            1 RES     
    7590 H6         271.7240  -186.7814  -146.0301 H6            1 RES     
    7591 H6         273.6956  -185.8566  -144.9923 H6            1 RES     
    7592 H6         273.3447  -184.9974  -146.5108 H6            1 RES     
    7593 H6         275.7716  -185.3423  -146.1845 H6            1 RES     
    7594 H6         275.1984  -186.1330  -147.6789 H6            1 RES     
    7595 H6         275.2406  -188.3566  -146.5978 H6            1 RES     
    7596 H6         276.8288  -187.5281  -146.5116 H6            1 RES     
    7597 H6         274.7465  -187.6805  -144.2316 H6            1 RES     
    7598 H6         276.3489  -186.8685  -144.1101 H6            1 RES     
    7599 H6         276.2291  -189.1387  -143.0615 H6            1 RES     
    7600 H6         275.7985  -189.8607  -144.6539 H6            1 RES     
    7601 H6         278.0768  -189.1304  -145.5455 H6            1 RES     
    7602 H6         278.4056  -188.3425  -143.9588 H6            1 RES     
    7603 H6         278.2975  -190.5621  -142.8147 H6            1 RES     
    7604 H6         279.5725  -190.4714  -144.0816 H6            1 RES     
    7605 H6         276.8302  -191.8515  -144.4191 H6            1 RES     
    7606 H6         278.1097  -191.6937  -145.6913 H6            1 RES     
    7607 H6         278.4231  -192.6424  -144.1890 H6            1 RES     
    7608 H6         270.2304  -188.2849  -146.7254 H6            1 RES     
    7609 H6         269.4617  -188.9830  -148.1119 H6            1 RES     
    7610 H6         269.1487  -186.3019  -146.9912 H6            1 RES     
    7611 H6         269.9446  -186.0657  -148.5877 H6            1 RES     
    7612 H6         267.3381  -187.6981  -148.0388 H6            1 RES     
    7613 H6         268.2572  -187.5860  -149.5322 H6            1 RES     
    7614 H6         267.8963  -185.2219  -149.7913 H6            1 RES     
    7615 H6         266.4677  -186.2672  -149.9217 H6            1 RES     
    7616 H6         265.7088  -185.7027  -147.7087 H6            1 RES     
    7617 H6         267.0991  -184.5745  -147.4364 H6            1 RES     
    7618 H6         266.4605  -183.2179  -149.4008 H6            1 RES     
    7619 H6         265.1310  -184.3437  -149.8394 H6            1 RES     
    7620 H6         264.3251  -182.2690  -148.7731 H6            1 RES     
    7621 H6         265.2183  -182.6644  -147.2573 H6            1 RES     
    7622 H6         263.7949  -184.7628  -147.0355 H6            1 RES     
    7623 H6         262.7799  -183.2865  -147.1601 H6            1 RES     
    7624 H6         262.9816  -184.3531  -148.5980 H6            1 RES     
    7625 C0         271.4839  -189.0147  -152.5662 C0            1 RES     
    7626 C0         272.6219  -187.9932  -153.0219 C0            1 RES     
    7627 C0         272.6056  -187.9829  -154.5878 C0            1 RES     
    7628 C0         273.7958  -187.2708  -155.2619 C0            1 RES     
    7629 C0         273.7265  -187.2642  -156.7992 C0            1 RES     
    7630 C0         273.7043  -188.6476  -157.4735 C0            1 RES     
    7631 C0         274.8524  -189.5886  -157.0725 C0            1 RES     
    7632 C0         276.2487  -189.0021  -157.3457 C0            1 RES     
    7633 C0         277.3849  -189.9526  -156.9347 C0            1 RES     
    7634 C0         277.4379  -191.2290  -157.7933 C0            1 RES     
    7635 C0         278.6461  -192.1212  -157.4684 C0            1 RES     
    7636 C0         278.5988  -192.7110  -156.0588 C0            1 RES     
    7637 C0         272.8272  -186.5311  -152.4415 C0            1 RES     
    7638 C0         271.8016  -185.3912  -152.6999 C0            1 RES     
    7639 C0         270.9680  -185.0583  -151.4495 C0            1 RES     
    7640 C0         269.8899  -183.9994  -151.6117 C0            1 RES     
    7641 C0         270.3542  -182.5559  -151.7453 C0            1 RES     
    7642 C0         269.0913  -181.6709  -151.7190 C0            1 RES     
    7643 C0         269.3706  -180.1672  -151.6884 C0            1 RES     
    7644 C0         270.0156  -179.7230  -150.3747 C0            1 RES     
    7645 H6         270.6866  -189.0302  -153.3453 H6            1 RES     
    7646 H6         271.9399  -190.0182  -152.7243 H6            1 RES     
    7647 H6         273.5659  -188.4935  -152.7047 H6            1 RES     
    7648 H6         271.6644  -187.5065  -154.9378 H6            1 RES     
    7649 H6         272.6032  -189.0389  -154.9338 H6            1 RES     
    7650 H6         274.7436  -187.7384  -154.9222 H6            1 RES     
    7651 H6         273.8123  -186.1998  -154.9817 H6            1 RES     
    7652 H6         274.6037  -186.6949  -157.1744 H6            1 RES     
    7653 H6         272.8200  -186.7064  -157.1221 H6            1 RES     
    7654 H6         273.7289  -188.4901  -158.5740 H6            1 RES     
    7655 H6         272.7446  -189.1549  -157.2375 H6            1 RES     
    7656 H6         274.7665  -189.8411  -155.9939 H6            1 RES     
    7657 H6         274.7137  -190.5244  -157.6514 H6            1 RES     
    7658 H6         276.3731  -188.0768  -156.7453 H6            1 RES     
    7659 H6         276.3514  -188.7361  -158.4200 H6            1 RES     
    7660 H6         278.3443  -189.4065  -157.0663 H6            1 RES     
    7661 H6         277.2715  -190.2023  -155.8584 H6            1 RES     
    7662 H6         276.5123  -191.8287  -157.6729 H6            1 RES     
    7663 H6         277.5214  -190.9245  -158.8595 H6            1 RES     
    7664 H6         279.5870  -191.5441  -157.6007 H6            1 RES     
    7665 H6         278.6537  -192.9654  -158.1912 H6            1 RES     
    7666 H6         278.6426  -191.9162  -155.2871 H6            1 RES     
    7667 H6         277.6714  -193.3070  -155.9229 H6            1 RES     
    7668 H6         279.4737  -193.3786  -155.9116 H6            1 RES     
    7669 H6         273.7722  -186.1812  -152.8959 H6            1 RES     
    7670 H6         273.1741  -186.5233  -151.3911 H6            1 RES     
    7671 H6         272.3751  -184.4602  -152.9035 H6            1 RES     
    7672 H6         271.1873  -185.6061  -153.5977 H6            1 RES     
    7673 H6         271.6374  -184.7897  -150.6009 H6            1 RES     
    7674 H6         270.3881  -185.9258  -151.1547 H6            1 RES     
    7675 H6         269.2049  -184.2811  -152.4408 H6            1 RES     
    7676 H6         269.3328  -184.0175  -150.6605 H6            1 RES     
    7677 H6         271.0082  -182.3287  -150.8770 H6            1 RES     
    7678 H6         270.9260  -182.4032  -152.6843 H6            1 RES     
    7679 H6         268.4878  -181.9053  -152.6235 H6            1 RES     
    7680 H6         268.4682  -181.9132  -150.8274 H6            1 RES     
    7681 H6         268.3909  -179.6473  -151.7709 H6            1 RES     
    7682 H6         269.9999  -179.8780  -152.5533 H6            1 RES     
    7683 H6         271.0196  -180.1731  -150.2436 H6            1 RES     
    7684 H6         270.1276  -178.6193  -150.3766 H6            1 RES     
    7685 H6         269.3725  -180.0094  -149.5137 H6            1 RES     
    7686 C0         274.4058  -200.9004  -147.1513 C0            1 RES     
    7687 C1         273.3000  -199.9086  -147.5748 C1            1 RES     
    7688 C1         272.1365  -200.5349  -147.8896 C1            1 RES     
    7689 S2         270.9450  -199.4965  -148.4414 S2            1 RES     
    7690 C1         271.9717  -198.1467  -148.3195 C1            1 RES     
    7691 C1         273.2325  -198.5329  -147.8515 C1            1 RES     
    7692 C1         272.3197  -201.9284  -147.7581 C1            1 RES     
    7693 C1         273.6147  -202.1802  -147.4257 C1            1 RES     
    7694 C1         273.9037  -203.5395  -147.4192 C1            1 RES     
    7695 C1         272.7566  -204.2906  -147.7259 C1            1 RES     
    7696 S2         271.4109  -203.2970  -148.0181 S2            1 RES     
    7697 H3         274.0436  -197.8335  -147.7791 H3            1 RES     
    7698 H3         274.8809  -203.9587  -147.2113 H3            1 RES     
    7699 N4         271.8884  -207.9060  -147.2510 N4            1 RES     
    7700 C1         271.9675  -206.5599  -147.0367 C1            1 RES     
    7701 C1         272.6975  -205.7362  -147.9111 C1            1 RES     
    7702 C1         273.3166  -206.3303  -149.0123 C1            1 RES     
    7703 N4         274.0018  -205.6433  -149.9619 N4            1 RES     
    7704 S2         274.4353  -206.8401  -151.0162 S2            1 RES     
    7705 N4         273.8033  -208.2113  -150.3389 N4            1 RES     
    7706 C1         273.2030  -207.7274  -149.2234 C1            1 RES     
    7707 C1         272.4908  -208.5065  -148.3155 C1            1 RES     
    7708 H5         271.4666  -206.1276  -146.1748 H5            1 RES     
    7709 C0         274.8922  -200.9276  -145.6595 C0            1 RES     
    7710 C0         274.1676  -201.4463  -144.3603 C0            1 RES     
    7711 C0         275.1312  -201.0748  -143.1789 C0            1 RES     
    7712 C0         274.7127  -201.5291  -141.7750 C0            1 RES     
    7713 C0         275.7090  -201.0644  -140.6868 C0            1 RES     
    7714 C0         277.1447  -201.6210  -140.8072 C0            1 RES     
    7715 C0         277.2420  -203.1558  -140.8638 C0            1 RES     
    7716 C0         276.6057  -203.8457  -139.6440 C0            1 RES     
    7717 C0         276.6542  -205.3780  -139.7297 C0            1 RES     
    7718 C0         278.0820  -205.9442  -139.6481 C0            1 RES     
    7719 C0         278.1104  -207.4806  -139.6193 C0            1 RES     
    7720 C0         277.6077  -208.1169  -140.9157 C0            1 RES     
    7721 C0         272.6928  -201.0134  -144.0731 C0            1 RES     
    7722 C0         272.3785  -199.5099  -143.8019 C0            1 RES     
    7723 C0         271.3760  -199.0161  -144.8493 C0            1 RES     
    7724 C0         271.1683  -197.5107  -144.9888 C0            1 RES     
    7725 C0         270.2569  -196.8550  -143.9617 C0            1 RES     
    7726 C0         270.1506  -195.3569  -144.3162 C0            1 RES     
    7727 C0         269.1165  -194.5866  -143.4919 C0            1 RES     
    7728 C0         267.6828  -195.0127  -143.8149 C0            1 RES     
    7729 H6         275.1694  -199.9331  -145.4189 H6            1 RES     
    7730 H6         275.8249  -201.5352  -145.6878 H6            1 RES     
    7731 H6         274.1227  -202.5552  -144.4431 H6            1 RES     
    7732 H6         275.2568  -199.9705  -143.1417 H6            1 RES     
    7733 H6         276.1256  -201.5179  -143.4011 H6            1 RES     
    7734 H6         274.5929  -202.6313  -141.7510 H6            1 RES     
    7735 H6         273.7384  -201.0670  -141.5172 H6            1 RES     
    7736 H6         275.2961  -201.3493  -139.6970 H6            1 RES     
    7737 H6         275.7691  -199.9535  -140.6946 H6            1 RES     
    7738 H6         277.7312  -201.2533  -139.9358 H6            1 RES     
    7739 H6         277.6307  -201.2097  -141.7177 H6            1 RES     
    7740 H6         276.7515  -203.5198  -141.7911 H6            1 RES     
    7741 H6         278.3191  -203.4158  -140.9262 H6            1 RES     
    7742 H6         275.5317  -203.5728  -139.5981 H6            1 RES     
    7743 H6         277.0945  -203.5005  -138.7068 H6            1 RES     
    7744 H6         276.0731  -205.7803  -138.8715 H6            1 RES     
    7745 H6         276.1535  -205.6956  -140.6684 H6            1 RES     
    7746 H6         278.6991  -205.5911  -140.5002 H6            1 RES     
    7747 H6         278.5446  -205.5796  -138.7051 H6            1 RES     
    7748 H6         277.5074  -207.8529  -138.7625 H6            1 RES     
    7749 H6         279.1628  -207.8037  -139.4668 H6            1 RES     
    7750 H6         276.5414  -207.8746  -141.0982 H6            1 RES     
    7751 H6         278.2177  -207.7671  -141.7755 H6            1 RES     
    7752 H6         277.6979  -209.2209  -140.8420 H6            1 RES     
    7753 H6         272.3447  -201.5782  -143.1819 H6            1 RES     
    7754 H6         272.0479  -201.4203  -144.8812 H6            1 RES     
    7755 H6         271.9227  -199.3770  -142.7951 H6            1 RES     
    7756 H6         273.3120  -198.9125  -143.8402 H6            1 RES     
    7757 H6         270.4081  -199.5576  -144.7947 H6            1 RES     
    7758 H6         271.8394  -199.2811  -145.7758 H6            1 RES     
    7759 H6         272.1426  -197.0171  -145.0217 H6            1 RES     
    7760 H6         270.6869  -197.3517  -145.9805 H6            1 RES     
    7761 H6         269.2661  -197.3510  -144.0380 H6            1 RES     
    7762 H6         270.6504  -196.9800  -142.9308 H6            1 RES     
    7763 H6         271.1517  -194.8949  -144.1589 H6            1 RES     
    7764 H6         269.8874  -195.2287  -145.3909 H6            1 RES     
    7765 H6         269.2092  -193.5099  -143.7548 H6            1 RES     
    7766 H6         269.3242  -194.7028  -142.4074 H6            1 RES     
    7767 H6         267.5016  -196.0707  -143.5410 H6            1 RES     
    7768 H6         266.9715  -194.3805  -143.2457 H6            1 RES     
    7769 H6         267.4794  -194.8787  -144.9009 H6            1 RES     
    7770 C0         275.5938  -200.6484  -148.1616 C0            1 RES     
    7771 C0         277.0149  -200.0253  -147.7894 C0            1 RES     
    7772 C0         277.6170  -199.4690  -149.1236 C0            1 RES     
    7773 C0         279.1018  -199.0569  -149.0638 C0            1 RES     
    7774 C0         279.6447  -198.4942  -150.3893 C0            1 RES     
    7775 C0         279.5829  -199.4480  -151.5957 C0            1 RES     
    7776 C0         280.2420  -200.8202  -151.3784 C0            1 RES     
    7777 C0         281.7256  -200.7306  -150.9796 C0            1 RES     
    7778 C0         282.3681  -202.1100  -150.7613 C0            1 RES     
    7779 C0         282.4696  -202.9352  -152.0567 C0            1 RES     
    7780 C0         283.2230  -204.2608  -151.8664 C0            1 RES     
    7781 C0         282.4970  -205.2404  -150.9442 C0            1 RES     
    7782 C0         277.2944  -199.0382  -146.5793 C0            1 RES     
    7783 C0         276.7327  -197.5884  -146.5529 C0            1 RES     
    7784 C0         275.5717  -197.4278  -145.5552 C0            1 RES     
    7785 C0         274.9075  -196.0620  -145.4972 C0            1 RES     
    7786 C0         275.6942  -194.9390  -144.8362 C0            1 RES     
    7787 C0         274.7525  -193.7208  -144.7448 C0            1 RES     
    7788 C0         275.3230  -192.5348  -143.9651 C0            1 RES     
    7789 C0         275.4818  -192.8415  -142.4752 C0            1 RES     
    7790 H6         275.1843  -200.1003  -149.0418 H6            1 RES     
    7791 H6         275.8406  -201.6277  -148.6308 H6            1 RES     
    7792 H6         277.6223  -200.9131  -147.4976 H6            1 RES     
    7793 H6         277.0197  -198.5916  -149.4534 H6            1 RES     
    7794 H6         277.5167  -200.2607  -149.8969 H6            1 RES     
    7795 H6         279.7111  -199.9255  -148.7371 H6            1 RES     
    7796 H6         279.2439  -198.2346  -148.3361 H6            1 RES     
    7797 H6         280.7011  -198.1941  -150.2214 H6            1 RES     
    7798 H6         279.0857  -197.5686  -150.6499 H6            1 RES     
    7799 H6         280.0716  -198.9404  -152.4560 H6            1 RES     
    7800 H6         278.5211  -199.6162  -151.8759 H6            1 RES     
    7801 H6         279.6862  -201.3797  -150.5959 H6            1 RES     
    7802 H6         280.1380  -201.3776  -152.3316 H6            1 RES     
    7803 H6         281.8061  -200.1844  -150.0166 H6            1 RES     
    7804 H6         282.2978  -200.1670  -151.7480 H6            1 RES     
    7805 H6         283.3972  -201.9443  -150.3747 H6            1 RES     
    7806 H6         281.7893  -202.6564  -149.9866 H6            1 RES     
    7807 H6         281.4631  -203.1558  -152.4681 H6            1 RES     
    7808 H6         283.0299  -202.3341  -152.8057 H6            1 RES     
    7809 H6         284.2427  -204.0613  -151.4712 H6            1 RES     
    7810 H6         283.3263  -204.7430  -152.8624 H6            1 RES     
    7811 H6         282.4094  -204.8367  -149.9154 H6            1 RES     
    7812 H6         281.4837  -205.4625  -151.3413 H6            1 RES     
    7813 H6         283.0724  -206.1886  -150.8912 H6            1 RES     
    7814 H6         278.3939  -198.9250  -146.5604 H6            1 RES     
    7815 H6         277.1936  -199.5217  -145.5895 H6            1 RES     
    7816 H6         277.5309  -196.9238  -146.1548 H6            1 RES     
    7817 H6         276.4890  -197.2386  -147.5765 H6            1 RES     
    7818 H6         275.8958  -197.7344  -144.5348 H6            1 RES     
    7819 H6         274.7462  -198.0666  -145.8485 H6            1 RES     
    7820 H6         274.5589  -195.7677  -146.5110 H6            1 RES     
    7821 H6         274.0329  -196.2025  -144.8408 H6            1 RES     
    7822 H6         275.9877  -195.2825  -143.8218 H6            1 RES     
    7823 H6         276.6069  -194.6918  -145.4174 H6            1 RES     
    7824 H6         274.5167  -193.3895  -145.7800 H6            1 RES     
    7825 H6         273.7928  -194.0101  -144.2578 H6            1 RES     
    7826 H6         274.5960  -191.6982  -144.0573 H6            1 RES     
    7827 H6         276.2883  -192.2165  -144.4063 H6            1 RES     
    7828 H6         276.2269  -193.6436  -142.3036 H6            1 RES     
    7829 H6         275.8270  -191.9285  -141.9481 H6            1 RES     
    7830 H6         274.5064  -193.1510  -142.0396 H6            1 RES     
    7831 C0         273.4443  -213.8585  -148.1569 C0            1 RES     
    7832 C1         272.8431  -212.4502  -148.3593 C1            1 RES     
    7833 C1         271.7891  -212.4561  -149.2162 C1            1 RES     
    7834 S2         271.1720  -210.9318  -149.5294 S2            1 RES     
    7835 C1         272.3398  -210.1841  -148.5455 C1            1 RES     
    7836 C1         273.1961  -211.1414  -147.9905 C1            1 RES     
    7837 C1         271.5923  -213.7725  -149.6865 C1            1 RES     
    7838 C1         272.5622  -214.5793  -149.1774 C1            1 RES     
    7839 C1         272.5165  -215.8617  -149.7109 C1            1 RES     
    7840 C1         271.4463  -215.9843  -150.6131 C1            1 RES     
    7841 S2         270.5798  -214.5319  -150.7657 S2            1 RES     
    7842 H3         274.0467  -210.8595  -147.3995 H3            1 RES     
    7843 H3         273.2144  -216.6538  -149.4671 H3            1 RES     
    7844 N4         269.6839  -218.9535  -152.0718 N4            1 RES     
    7845 C1         269.9687  -217.8938  -151.2594 C1            1 RES     
    7846 C1         271.1459  -217.1474  -151.4405 C1            1 RES     
    7847 C1         271.9991  -217.5067  -152.4854 C1            1 RES     
    7848 N4         273.1357  -216.8359  -152.8043 N4            1 RES     
    7849 S2         273.6711  -217.6640  -154.1307 S2            1 RES     
    7850 N4         272.5373  -218.8512  -154.3395 N4            1 RES     
    7851 C1         271.6711  -218.5989  -153.3273 C1            1 RES     
    7852 C1         270.5063  -219.3249  -153.0928 C1            1 RES     
    7853 H5         269.2792  -217.6349  -150.4606 H5            1 RES     
    7854 C0         273.2871  -214.5761  -146.7701 C0            1 RES     
    7855 C0         272.0156  -215.2078  -146.0875 C0            1 RES     
    7856 C0         272.4946  -215.6484  -144.6596 C0            1 RES     
    7857 C0         271.4694  -216.3730  -143.7784 C0            1 RES     
    7858 C0         272.0348  -216.7128  -142.3792 C0            1 RES     
    7859 C0         273.2405  -217.6780  -142.3571 C0            1 RES     
    7860 C0         273.0094  -219.0199  -143.0741 C0            1 RES     
    7861 C0         271.8099  -219.8045  -142.5136 C0            1 RES     
    7862 C0         271.5474  -221.1163  -143.2671 C0            1 RES     
    7863 C0         272.6645  -222.1566  -143.0791 C0            1 RES     
    7864 C0         272.3382  -223.5043  -143.7421 C0            1 RES     
    7865 C0         272.2572  -223.4215  -145.2669 C0            1 RES     
    7866 C0         270.6821  -214.3929  -146.0338 C0            1 RES     
    7867 C0         270.6283  -213.0727  -145.2049 C0            1 RES     
    7868 C0         270.2537  -211.9167  -146.1373 C0            1 RES     
    7869 C0         270.4566  -210.4920  -145.6296 C0            1 RES     
    7870 C0         269.3852  -209.9468  -144.6966 C0            1 RES     
    7871 C0         269.7614  -208.4911  -144.3489 C0            1 RES     
    7872 C0         268.6854  -207.7319  -143.5691 C0            1 RES     
    7873 C0         267.4378  -207.4630  -144.4132 C0            1 RES     
    7874 H6         273.6605  -213.9017  -146.0424 H6            1 RES     
    7875 H6         273.9962  -215.4328  -146.8244 H6            1 RES     
    7876 H6         271.7623  -216.1207  -146.6716 H6            1 RES     
    7877 H6         272.8367  -214.7534  -144.0955 H6            1 RES     
    7878 H6         273.3712  -216.3187  -144.7887 H6            1 RES     
    7879 H6         271.1089  -217.2895  -144.2881 H6            1 RES     
    7880 H6         270.6009  -215.7060  -143.6052 H6            1 RES     
    7881 H6         271.2148  -217.1499  -141.7728 H6            1 RES     
    7882 H6         272.3376  -215.7724  -141.8676 H6            1 RES     
    7883 H6         273.5035  -217.8765  -141.2941 H6            1 RES     
    7884 H6         274.1226  -217.1859  -142.8195 H6            1 RES     
    7885 H6         272.8548  -218.8339  -144.1579 H6            1 RES     
    7886 H6         273.9379  -219.6175  -142.9624 H6            1 RES     
    7887 H6         270.8936  -219.1912  -142.6327 H6            1 RES     
    7888 H6         271.9551  -220.0094  -141.4302 H6            1 RES     
    7889 H6         270.6027  -221.5477  -142.8700 H6            1 RES     
    7890 H6         271.3984  -220.8826  -144.3422 H6            1 RES     
    7891 H6         273.6280  -221.7831  -143.4837 H6            1 RES     
    7892 H6         272.7883  -222.3373  -141.9890 H6            1 RES     
    7893 H6         271.3812  -223.9012  -143.3385 H6            1 RES     
    7894 H6         273.1463  -224.2217  -143.4822 H6            1 RES     
    7895 H6         271.4305  -222.7585  -145.5926 H6            1 RES     
    7896 H6         273.2166  -223.0456  -145.6815 H6            1 RES     
    7897 H6         272.0641  -224.4337  -145.6799 H6            1 RES     
    7898 H6         269.8966  -215.0614  -145.6210 H6            1 RES     
    7899 H6         270.3334  -214.2287  -147.0758 H6            1 RES     
    7900 H6         269.8558  -213.1391  -144.4062 H6            1 RES     
    7901 H6         271.6090  -212.8854  -144.7223 H6            1 RES     
    7902 H6         269.2483  -212.0487  -146.5896 H6            1 RES     
    7903 H6         270.9722  -211.9951  -146.9252 H6            1 RES     
    7904 H6         271.4486  -210.4111  -145.1786 H6            1 RES     
    7905 H6         270.4511  -209.8353  -146.5292 H6            1 RES     
    7906 H6         268.4208  -209.9859  -145.2460 H6            1 RES     
    7907 H6         269.3043  -210.5554  -143.7712 H6            1 RES     
    7908 H6         270.6956  -208.5132  -143.7432 H6            1 RES     
    7909 H6         269.9764  -207.9124  -145.2759 H6            1 RES     
    7910 H6         269.1099  -206.7448  -143.2817 H6            1 RES     
    7911 H6         268.4196  -208.2833  -142.6428 H6            1 RES     
    7912 H6         266.9342  -208.4053  -144.7061 H6            1 RES     
    7913 H6         266.7195  -206.8530  -143.8287 H6            1 RES     
    7914 H6         267.7121  -206.8972  -145.3316 H6            1 RES     
    7915 C0         274.9571  -213.7268  -148.5924 C0            1 RES     
    7916 C0         276.2177  -213.8379  -147.6204 C0            1 RES     
    7917 C0         277.4020  -213.1165  -148.3480 C0            1 RES     
    7918 C0         278.7954  -213.3252  -147.7210 C0            1 RES     
    7919 C0         279.9248  -212.5797  -148.4538 C0            1 RES     
    7920 C0         280.1317  -212.9639  -149.9298 C0            1 RES     
    7921 C0         280.3308  -214.4659  -150.1925 C0            1 RES     
    7922 C0         281.5186  -215.0699  -149.4228 C0            1 RES     
    7923 C0         281.7009  -216.5723  -149.6923 C0            1 RES     
    7924 C0         282.1169  -216.8744  -151.1430 C0            1 RES     
    7925 C0         282.4211  -218.3614  -151.3830 C0            1 RES     
    7926 C0         281.1942  -219.2606  -151.2306 C0            1 RES     
    7927 C0         276.2111  -213.5059  -146.0691 C0            1 RES     
    7928 C0         276.0206  -212.0569  -145.5380 C0            1 RES     
    7929 C0         274.6282  -211.8377  -144.9195 C0            1 RES     
    7930 C0         274.3151  -210.4346  -144.4265 C0            1 RES     
    7931 C0         275.0069  -209.9813  -143.1486 C0            1 RES     
    7932 C0         274.4002  -208.6156  -142.7667 C0            1 RES     
    7933 C0         274.8663  -208.0696  -141.4158 C0            1 RES     
    7934 C0         274.3555  -208.9079  -140.2430 C0            1 RES     
    7935 H6         275.0584  -212.7989  -149.2021 H6            1 RES     
    7936 H6         275.1446  -214.5009  -149.3706 H6            1 RES     
    7937 H6         276.4488  -214.9281  -147.6140 H6            1 RES     
    7938 H6         277.1925  -212.0258  -148.3888 H6            1 RES     
    7939 H6         277.4405  -213.4963  -149.3916 H6            1 RES     
    7940 H6         279.0187  -214.4117  -147.6757 H6            1 RES     
    7941 H6         278.8189  -212.9185  -146.6914 H6            1 RES     
    7942 H6         280.8685  -212.7655  -147.8978 H6            1 RES     
    7943 H6         279.7331  -211.4852  -148.4038 H6            1 RES     
    7944 H6         281.0179  -212.4070  -150.3053 H6            1 RES     
    7945 H6         279.2565  -212.6233  -150.5233 H6            1 RES     
    7946 H6         279.4036  -215.0161  -149.9244 H6            1 RES     
    7947 H6         280.4884  -214.5796  -151.2844 H6            1 RES     
    7948 H6         281.3336  -214.9605  -148.3338 H6            1 RES     
    7949 H6         282.4558  -214.5270  -149.6726 H6            1 RES     
    7950 H6         282.5046  -216.9399  -149.0177 H6            1 RES     
    7951 H6         280.7591  -217.1001  -149.4309 H6            1 RES     
    7952 H6         281.3310  -216.5540  -151.8576 H6            1 RES     
    7953 H6         283.0443  -216.3015  -151.3625 H6            1 RES     
    7954 H6         283.2206  -218.6993  -150.6883 H6            1 RES     
    7955 H6         282.7974  -218.4714  -152.4229 H6            1 RES     
    7956 H6         280.8017  -219.2354  -150.1940 H6            1 RES     
    7957 H6         280.3962  -218.9438  -151.9354 H6            1 RES     
    7958 H6         281.4770  -220.3087  -151.4634 H6            1 RES     
    7959 H6         277.2103  -213.8175  -145.7133 H6            1 RES     
    7960 H6         275.6257  -214.2289  -145.4706 H6            1 RES     
    7961 H6         276.7241  -211.9128  -144.6886 H6            1 RES     
    7962 H6         276.2821  -211.3115  -146.3162 H6            1 RES     
    7963 H6         274.4492  -212.5742  -144.1035 H6            1 RES     
    7964 H6         273.8648  -211.9857  -145.6752 H6            1 RES     
    7965 H6         274.4669  -209.7021  -145.2489 H6            1 RES     
    7966 H6         273.2457  -210.4625  -144.1600 H6            1 RES     
    7967 H6         274.7947  -210.7363  -142.3624 H6            1 RES     
    7968 H6         276.1045  -209.9011  -143.2928 H6            1 RES     
    7969 H6         274.6693  -207.8850  -143.5610 H6            1 RES     
    7970 H6         273.2882  -208.6822  -142.7343 H6            1 RES     
    7971 H6         274.4388  -207.0487  -141.3067 H6            1 RES     
    7972 H6         275.9717  -207.9957  -141.3947 H6            1 RES     
    7973 H6         274.7757  -209.9330  -140.2642 H6            1 RES     
    7974 H6         274.6592  -208.4279  -139.2902 H6            1 RES     
    7975 H6         273.2453  -208.9685  -140.2677 H6            1 RES     
    7976 C0         270.1096  -224.3524  -155.1288 C0            1 RES     
    7977 C1         269.9643  -222.8456  -154.8219 C1            1 RES     
    7978 C1         269.3583  -222.1683  -155.8315 C1            1 RES     
    7979 S2         269.2680  -220.5171  -155.5706 S2            1 RES     
    7980 C1         270.0901  -220.6393  -154.0874 C1            1 RES     
    7981 C1         270.4247  -221.9719  -153.8228 C1            1 RES     
    7982 C1         269.0755  -223.0707  -156.8795 C1            1 RES     
    7983 C1         269.5628  -224.2991  -156.5561 C1            1 RES     
    7984 C1         269.4472  -225.2057  -157.6030 C1            1 RES     
    7985 C1         268.8187  -224.6075  -158.7082 C1            1 RES     
    7986 S2         268.4268  -222.9827  -158.4086 S2            1 RES     
    7987 H3         271.0147  -222.2443  -152.9684 H3            1 RES     
    7988 H3         269.7991  -226.2299  -157.5704 H3            1 RES     
    7989 N4         267.1599  -226.0225  -161.7572 N4            1 RES     
    7990 C1         267.3302  -225.4923  -160.5106 C1            1 RES     
    7991 C1         268.6175  -225.2162  -160.0185 C1            1 RES     
    7992 C1         269.7096  -225.4778  -160.8478 C1            1 RES     
    7993 N4         270.9980  -225.2045  -160.5179 N4            1 RES     
    7994 S2         271.8129  -225.6575  -161.8827 S2            1 RES     
    7995 N4         270.6197  -226.1954  -162.8952 N4            1 RES     
    7996 C1         269.5051  -226.0100  -162.1456 C1            1 RES     
    7997 C1         268.2124  -226.2916  -162.5797 C1            1 RES     
    7998 H5         266.4585  -225.2922  -159.8935 H5            1 RES     
    7999 C0         269.2662  -225.3942  -154.3126 C0            1 RES     
    8000 C0         267.7232  -225.7101  -154.3502 C0            1 RES     
    8001 C0         267.4929  -226.7599  -153.2069 C0            1 RES     
    8002 C0         266.0715  -227.3149  -153.0525 C0            1 RES     
    8003 C0         265.9519  -228.2993  -151.8653 C0            1 RES     
    8004 C0         266.8057  -229.5826  -151.9668 C0            1 RES     
    8005 C0         266.5835  -230.4091  -153.2456 C0            1 RES     
    8006 C0         265.1189  -230.8413  -153.4375 C0            1 RES     
    8007 C0         264.8896  -231.6178  -154.7421 C0            1 RES     
    8008 C0         265.5826  -232.9908  -154.7595 C0            1 RES     
    8009 C0         265.2528  -233.8062  -156.0200 C0            1 RES     
    8010 C0         265.7971  -233.1778  -157.3034 C0            1 RES     
    8011 C0         266.6923  -224.5362  -154.2855 C0            1 RES     
    8012 C0         266.6115  -223.6626  -152.9959 C0            1 RES     
    8013 C0         266.8990  -222.2044  -153.3659 C0            1 RES     
    8014 C0         267.1966  -221.2235  -152.2354 C0            1 RES     
    8015 C0         265.9948  -220.6826  -151.4745 C0            1 RES     
    8016 C0         266.5167  -219.6832  -150.4209 C0            1 RES     
    8017 C0         265.4184  -218.9028  -149.6951 C0            1 RES     
    8018 C0         264.6955  -217.9216  -150.6203 C0            1 RES     
    8019 H6         269.4633  -225.2000  -153.2893 H6            1 RES     
    8020 H6         269.7307  -226.3753  -154.5605 H6            1 RES     
    8021 H6         267.5241  -226.2040  -155.3275 H6            1 RES     
    8022 H6         267.7753  -226.3071  -152.2313 H6            1 RES     
    8023 H6         268.1777  -227.6155  -153.3901 H6            1 RES     
    8024 H6         265.7465  -227.7984  -153.9961 H6            1 RES     
    8025 H6         265.3759  -226.4804  -152.8309 H6            1 RES     
    8026 H6         264.8850  -228.5862  -151.7613 H6            1 RES     
    8027 H6         266.2298  -227.7749  -150.9243 H6            1 RES     
    8028 H6         266.5795  -230.2179  -151.0816 H6            1 RES     
    8029 H6         267.8837  -229.3207  -151.9068 H6            1 RES     
    8030 H6         266.9119  -229.8172  -154.1259 H6            1 RES     
    8031 H6         267.2361  -231.3042  -153.1772 H6            1 RES     
    8032 H6         264.4835  -229.9346  -153.5020 H6            1 RES     
    8033 H6         264.7780  -231.4461  -152.5688 H6            1 RES     
    8034 H6         263.7948  -231.7816  -154.8467 H6            1 RES     
    8035 H6         265.2301  -230.9896  -155.5919 H6            1 RES     
    8036 H6         266.6842  -232.8812  -154.6827 H6            1 RES     
    8037 H6         265.2253  -233.5690  -153.8797 H6            1 RES     
    8038 H6         264.1522  -233.9380  -156.1066 H6            1 RES     
    8039 H6         265.7133  -234.8118  -155.9110 H6            1 RES     
    8040 H6         265.3339  -232.1895  -157.4979 H6            1 RES     
    8041 H6         266.8996  -233.0611  -157.2350 H6            1 RES     
    8042 H6         265.5626  -233.8386  -158.1640 H6            1 RES     
    8043 H6         265.6809  -224.9686  -154.4423 H6            1 RES     
    8044 H6         266.8262  -223.9063  -155.1910 H6            1 RES     
    8045 H6         265.5938  -223.7131  -152.5478 H6            1 RES     
    8046 H6         267.3391  -224.0270  -152.2426 H6            1 RES     
    8047 H6         266.1496  -221.7937  -154.0749 H6            1 RES     
    8048 H6         267.8323  -222.2629  -153.8845 H6            1 RES     
    8049 H6         267.9232  -221.6730  -151.5542 H6            1 RES     
    8050 H6         267.6902  -220.3432  -152.7065 H6            1 RES     
    8051 H6         265.3408  -220.1731  -152.2135 H6            1 RES     
    8052 H6         265.4247  -221.4987  -150.9824 H6            1 RES     
    8053 H6         267.1082  -220.2539  -149.6695 H6            1 RES     
    8054 H6         267.2007  -218.9415  -150.8929 H6            1 RES     
    8055 H6         265.9033  -218.3049  -148.8922 H6            1 RES     
    8056 H6         264.6955  -219.6020  -149.2248 H6            1 RES     
    8057 H6         264.1520  -218.4498  -151.4283 H6            1 RES     
    8058 H6         263.9600  -217.3336  -150.0345 H6            1 RES     
    8059 H6         265.4260  -217.2158  -151.0751 H6            1 RES     
    8060 C0         271.6601  -224.6423  -155.0435 C0            1 RES     
    8061 C0         272.3795  -225.5361  -153.9346 C0            1 RES     
    8062 C0         273.8821  -225.0953  -153.9176 C0            1 RES     
    8063 C0         274.8338  -226.0028  -153.1121 C0            1 RES     
    8064 C0         276.2947  -225.5192  -153.1031 C0            1 RES     
    8065 C0         276.9734  -225.4166  -154.4807 C0            1 RES     
    8066 C0         276.9215  -226.6962  -155.3319 C0            1 RES     
    8067 C0         277.5460  -227.9192  -154.6375 C0            1 RES     
    8068 C0         277.4816  -229.1908  -155.4991 C0            1 RES     
    8069 C0         278.3553  -229.1025  -156.7632 C0            1 RES     
    8070 C0         278.3916  -230.4155  -157.5606 C0            1 RES     
    8071 C0         277.0373  -230.7955  -158.1594 C0            1 RES     
    8072 C0         271.8385  -225.7833  -152.4638 C0            1 RES     
    8073 C0         271.7810  -224.6454  -151.4056 C0            1 RES     
    8074 C0         270.3439  -224.1598  -151.1446 C0            1 RES     
    8075 C0         270.1818  -223.0035  -150.1717 C0            1 RES     
    8076 C0         270.3984  -223.3072  -148.6959 C0            1 RES     
    8077 C0         270.0095  -222.0373  -147.9117 C0            1 RES     
    8078 C0         270.0166  -222.2034  -146.3910 C0            1 RES     
    8079 C0         268.9147  -223.1460  -145.9046 C0            1 RES     
    8080 H6         272.1954  -223.6670  -155.1168 H6            1 RES     
    8081 H6         271.9613  -225.1106  -156.0078 H6            1 RES     
    8082 H6         272.3418  -226.5648  -154.3617 H6            1 RES     
    8083 H6         273.9528  -224.0622  -153.5139 H6            1 RES     
    8084 H6         274.2418  -225.0767  -154.9689 H6            1 RES     
    8085 H6         274.7746  -227.0389  -153.5065 H6            1 RES     
    8086 H6         274.5408  -226.0161  -152.0444 H6            1 RES     
    8087 H6         276.8778  -226.2177  -152.4657 H6            1 RES     
    8088 H6         276.3464  -224.5208  -152.6157 H6            1 RES     
    8089 H6         278.0353  -225.1304  -154.3163 H6            1 RES     
    8090 H6         276.5004  -224.5966  -155.0621 H6            1 RES     
    8091 H6         275.8667  -226.9245  -155.5956 H6            1 RES     
    8092 H6         277.4654  -226.4747  -156.2727 H6            1 RES     
    8093 H6         276.9778  -228.1336  -153.7083 H6            1 RES     
    8094 H6         278.6010  -227.7072  -154.3590 H6            1 RES     
    8095 H6         277.8530  -230.0359  -154.8796 H6            1 RES     
    8096 H6         276.4214  -229.3920  -155.7622 H6            1 RES     
    8097 H6         278.0051  -228.2908  -157.4335 H6            1 RES     
    8098 H6         279.3962  -228.8715  -156.4478 H6            1 RES     
    8099 H6         278.7579  -231.2405  -156.9117 H6            1 RES     
    8100 H6         279.1111  -230.2889  -158.3980 H6            1 RES     
    8101 H6         276.2858  -230.9884  -157.3675 H6            1 RES     
    8102 H6         276.6716  -229.9858  -158.8262 H6            1 RES     
    8103 H6         277.1489  -231.7240  -158.7578 H6            1 RES     
    8104 H6         272.5219  -226.5416  -152.0394 H6            1 RES     
    8105 H6         270.9208  -226.4004  -152.4344 H6            1 RES     
    8106 H6         272.1078  -225.0724  -150.4319 H6            1 RES     
    8107 H6         272.4850  -223.8283  -151.6630 H6            1 RES     
    8108 H6         269.7008  -225.0126  -150.8292 H6            1 RES     
    8109 H6         269.9261  -223.7467  -152.0559 H6            1 RES     
    8110 H6         270.8023  -222.1420  -150.5015 H6            1 RES     
    8111 H6         269.1164  -222.7280  -150.2377 H6            1 RES     
    8112 H6         269.7332  -224.1535  -148.4230 H6            1 RES     
    8113 H6         271.4526  -223.5902  -148.4946 H6            1 RES     
    8114 H6         270.7233  -221.2301  -148.1876 H6            1 RES     
    8115 H6         268.9894  -221.6986  -148.2059 H6            1 RES     
    8116 H6         269.8182  -221.2027  -145.9482 H6            1 RES     
    8117 H6         271.0115  -222.5518  -146.0495 H6            1 RES     
    8118 H6         269.0709  -224.1782  -146.2762 H6            1 RES     
    8119 H6         268.9182  -223.1721  -144.7956 H6            1 RES     
    8120 H6         267.9198  -222.7831  -146.2443 H6            1 RES     
    8121 C0         267.5432  -229.7853  -166.6937 C0            1 RES     
    8122 C1         267.6270  -228.5365  -165.7886 C1            1 RES     
    8123 C1         267.6322  -227.3803  -166.5016 C1            1 RES     
    8124 S2         267.8150  -226.0111  -165.5560 S2            1 RES     
    8125 C1         267.9399  -226.9307  -164.1313 C1            1 RES     
    8126 C1         267.8395  -228.2958  -164.4209 C1            1 RES     
    8127 C1         267.5910  -227.6939  -167.8773 C1            1 RES     
    8128 C1         267.6270  -229.0454  -168.0296 C1            1 RES     
    8129 C1         267.7338  -229.4242  -169.3624 C1            1 RES     
    8130 C1         267.7388  -228.2951  -170.1987 C1            1 RES     
    8131 S2         267.6314  -226.8516  -169.3110 S2            1 RES     
    8132 H3         267.9706  -229.0427  -163.6611 H3            1 RES     
    8133 H3         267.8081  -230.4491  -169.7057 H3            1 RES     
    8134 N4         267.1408  -227.8555  -173.8729 N4            1 RES     
    8135 C1         266.9211  -227.8909  -172.5258 C1            1 RES     
    8136 C1         267.9385  -228.2942  -171.6436 C1            1 RES     
    8137 C1         269.1808  -228.6335  -172.1824 C1            1 RES     
    8138 N4         270.2621  -228.9834  -171.4395 N4            1 RES     
    8139 S2         271.4248  -229.2015  -172.5939 S2            1 RES     
    8140 N4         270.6377  -228.8789  -174.0133 N4            1 RES     
    8141 C1         269.3895  -228.5696  -173.5830 C1            1 RES     
    8142 C1         268.3435  -228.1892  -174.4195 C1            1 RES     
    8143 H5         265.9452  -227.6120  -172.1379 H5            1 RES     
    8144 C0         266.2392  -230.6584  -166.6906 C0            1 RES     
    8145 C0         264.8066  -230.3531  -167.2704 C0            1 RES     
    8146 C0         263.9198  -231.5709  -166.8312 C0            1 RES     
    8147 C0         262.4673  -231.5829  -167.3237 C0            1 RES     
    8148 C0         261.6766  -232.8000  -166.7885 C0            1 RES     
    8149 C0         262.1943  -234.1862  -167.2316 C0            1 RES     
    8150 C0         262.3146  -234.3767  -168.7539 C0            1 RES     
    8151 C0         260.9867  -234.1471  -169.4972 C0            1 RES     
    8152 C0         261.1218  -234.2828  -171.0206 C0            1 RES     
    8153 C0         261.4431  -235.7167  -171.4747 C0            1 RES     
    8154 C0         261.4627  -235.8644  -173.0045 C0            1 RES     
    8155 C0         262.5914  -235.0772  -173.6713 C0            1 RES     
    8156 C0         264.1210  -228.9836  -166.9546 C0            1 RES     
    8157 C0         263.7363  -228.6453  -165.4814 C0            1 RES     
    8158 C0         264.4613  -227.3630  -165.0616 C0            1 RES     
    8159 C0         264.5006  -227.0156  -163.5762 C0            1 RES     
    8160 C0         263.2491  -226.3711  -162.9983 C0            1 RES     
    8161 C0         263.5230  -226.0633  -161.5112 C0            1 RES     
    8162 C0         262.4307  -225.2377  -160.8275 C0            1 RES     
    8163 C0         262.3657  -223.8054  -161.3618 C0            1 RES     
    8164 H6         266.0567  -230.9168  -165.6788 H6            1 RES     
    8165 H6         266.5338  -231.5904  -167.2239 H6            1 RES     
    8166 H6         264.9028  -230.3688  -168.3790 H6            1 RES     
    8167 H6         263.8894  -231.6205  -165.7208 H6            1 RES     
    8168 H6         264.4134  -232.4975  -167.1948 H6            1 RES     
    8169 H6         262.4403  -231.5552  -168.4320 H6            1 RES     
    8170 H6         261.9443  -230.6838  -166.9398 H6            1 RES     
    8171 H6         260.6198  -232.6929  -167.1095 H6            1 RES     
    8172 H6         261.6717  -232.7741  -165.6763 H6            1 RES     
    8173 H6         261.5043  -234.9583  -166.8239 H6            1 RES     
    8174 H6         263.1912  -234.3757  -166.7792 H6            1 RES     
    8175 H6         263.0843  -233.6813  -169.1501 H6            1 RES     
    8176 H6         262.6720  -235.4126  -168.9292 H6            1 RES     
    8177 H6         260.6456  -233.1088  -169.3086 H6            1 RES     
    8178 H6         260.2075  -234.8450  -169.1197 H6            1 RES     
    8179 H6         260.1493  -233.9871  -171.4710 H6            1 RES     
    8180 H6         261.8985  -233.5711  -171.3713 H6            1 RES     
    8181 H6         262.4207  -236.0522  -171.0707 H6            1 RES     
    8182 H6         260.6508  -236.3895  -171.0802 H6            1 RES     
    8183 H6         260.4849  -235.5451  -173.4267 H6            1 RES     
    8184 H6         261.6082  -236.9395  -173.2457 H6            1 RES     
    8185 H6         262.4731  -233.9865  -173.5115 H6            1 RES     
    8186 H6         263.5746  -235.4040  -173.2710 H6            1 RES     
    8187 H6         262.5733  -235.2646  -174.7654 H6            1 RES     
    8188 H6         263.1838  -228.9325  -167.5492 H6            1 RES     
    8189 H6         264.7353  -228.1755  -167.4063 H6            1 RES     
    8190 H6         262.6408  -228.4710  -165.3893 H6            1 RES     
    8191 H6         264.0096  -229.4871  -164.8133 H6            1 RES     
    8192 H6         264.1615  -226.4886  -165.6767 H6            1 RES     
    8193 H6         265.4849  -227.5762  -165.2853 H6            1 RES     
    8194 H6         264.7824  -227.9057  -163.0083 H6            1 RES     
    8195 H6         265.3212  -226.2731  -163.4500 H6            1 RES     
    8196 H6         263.0681  -225.4359  -163.5692 H6            1 RES     
    8197 H6         262.3662  -227.0374  -163.0975 H6            1 RES     
    8198 H6         263.6298  -227.0328  -160.9737 H6            1 RES     
    8199 H6         264.4831  -225.5100  -161.3984 H6            1 RES     
    8200 H6         262.6810  -225.1765  -159.7455 H6            1 RES     
    8201 H6         261.4458  -225.7395  -160.9327 H6            1 RES     
    8202 H6         262.0806  -223.7832  -162.4321 H6            1 RES     
    8203 H6         261.6096  -223.2305  -160.7895 H6            1 RES     
    8204 H6         263.3527  -223.3060  -161.2386 H6            1 RES     
    8205 C0         268.8298  -230.6333  -166.3453 C0            1 RES     
    8206 C0         268.8388  -232.0524  -165.6158 C0            1 RES     
    8207 C0         270.2712  -232.2279  -165.0078 C0            1 RES     
    8208 C0         270.6037  -233.6390  -164.4821 C0            1 RES     
    8209 C0         272.0115  -233.7596  -163.8724 C0            1 RES     
    8210 C0         273.1807  -233.4432  -164.8220 C0            1 RES     
    8211 C0         273.1848  -234.2353  -166.1401 C0            1 RES     
    8212 C0         273.1989  -235.7607  -165.9377 C0            1 RES     
    8213 C0         273.1977  -236.5376  -167.2642 C0            1 RES     
    8214 C0         274.4933  -236.3445  -168.0725 C0            1 RES     
    8215 C0         274.5477  -237.2163  -169.3367 C0            1 RES     
    8216 C0         273.4894  -236.8413  -170.3743 C0            1 RES     
    8217 C0         267.7240  -232.5762  -164.6160 C0            1 RES     
    8218 C0         267.5096  -231.9380  -163.2143 C0            1 RES     
    8219 C0         266.2318  -231.0823  -163.1492 C0            1 RES     
    8220 C0         265.9616  -230.3604  -161.8394 C0            1 RES     
    8221 C0         265.5086  -231.2124  -160.6620 C0            1 RES     
    8222 C0         265.1350  -230.2441  -159.5210 C0            1 RES     
    8223 C0         264.5078  -230.9160  -158.2982 C0            1 RES     
    8224 C0         263.1244  -231.4947  -158.5992 C0            1 RES     
    8225 H6         269.5524  -229.9615  -165.8262 H6            1 RES     
    8226 H6         269.3733  -230.8147  -167.3002 H6            1 RES     
    8227 H6         268.7448  -232.7795  -166.4552 H6            1 RES     
    8228 H6         270.4048  -231.5009  -164.1777 H6            1 RES     
    8229 H6         271.0090  -231.9801  -165.8010 H6            1 RES     
    8230 H6         270.4760  -234.3760  -165.3025 H6            1 RES     
    8231 H6         269.9203  -233.9124  -163.6549 H6            1 RES     
    8232 H6         272.1272  -234.7970  -163.4921 H6            1 RES     
    8233 H6         272.0876  -233.0846  -162.9916 H6            1 RES     
    8234 H6         274.1275  -233.6419  -164.2738 H6            1 RES     
    8235 H6         273.1682  -232.3606  -165.0707 H6            1 RES     
    8236 H6         272.2960  -233.9549  -166.7449 H6            1 RES     
    8237 H6         274.0886  -233.9180  -166.6991 H6            1 RES     
    8238 H6         272.2796  -236.0590  -165.3917 H6            1 RES     
    8239 H6         274.0784  -236.0604  -165.3276 H6            1 RES     
    8240 H6         273.0990  -237.6180  -167.0211 H6            1 RES     
    8241 H6         272.3099  -236.2321  -167.8577 H6            1 RES     
    8242 H6         274.6235  -235.2831  -168.3685 H6            1 RES     
    8243 H6         275.3500  -236.6352  -167.4261 H6            1 RES     
    8244 H6         274.4373  -238.2875  -169.0607 H6            1 RES     
    8245 H6         275.5467  -237.0809  -169.8044 H6            1 RES     
    8246 H6         272.4650  -237.0064  -169.9837 H6            1 RES     
    8247 H6         273.6040  -235.7773  -170.6723 H6            1 RES     
    8248 H6         273.6181  -237.4773  -171.2752 H6            1 RES     
    8249 H6         267.9995  -233.6283  -164.4180 H6            1 RES     
    8250 H6         266.7565  -232.7832  -165.1109 H6            1 RES     
    8251 H6         267.3246  -232.7633  -162.4918 H6            1 RES     
    8252 H6         268.4201  -231.4011  -162.8793 H6            1 RES     
    8253 H6         265.3450  -231.6925  -163.4349 H6            1 RES     
    8254 H6         266.3079  -230.2573  -163.8486 H6            1 RES     
    8255 H6         266.8357  -229.7296  -161.5679 H6            1 RES     
    8256 H6         265.0973  -229.7093  -162.0505 H6            1 RES     
    8257 H6         264.6202  -231.7942  -160.9869 H6            1 RES     
    8258 H6         266.3079  -231.9127  -160.3419 H6            1 RES     
    8259 H6         266.0593  -229.7129  -159.2038 H6            1 RES     
    8260 H6         264.4148  -229.4761  -159.8863 H6            1 RES     
    8261 H6         264.3788  -230.1319  -157.5201 H6            1 RES     
    8262 H6         265.1848  -231.6995  -157.9038 H6            1 RES     
    8263 H6         263.1811  -232.3151  -159.3419 H6            1 RES     
    8264 H6         262.6867  -231.9019  -157.6648 H6            1 RES     
    8265 H6         262.4500  -230.6992  -158.9856 H6            1 RES     
    8266 C0         268.5863  -229.5396  -179.6822 C0            1 RES     
    8267 C1         268.5826  -228.8045  -178.3238 C1            1 RES     
    8268 C1         269.1232  -227.5611  -178.4071 C1            1 RES     
    8269 S2         269.2187  -226.7722  -176.9336 S2            1 RES     
    8270 C1         268.5674  -228.1049  -176.1026 C1            1 RES     
    8271 C1         268.2890  -229.1473  -176.9934 C1            1 RES     
    8272 C1         269.5567  -227.3412  -179.7324 C1            1 RES     
    8273 C1         269.3492  -228.4692  -180.4641 C1            1 RES     
    8274 C1         269.8836  -228.3748  -181.7435 C1            1 RES     
    8275 C1         270.4664  -227.1121  -181.9442 C1            1 RES     
    8276 S2         270.3420  -226.1327  -180.5626 S2            1 RES     
    8277 H3         267.9424  -230.1033  -176.6493 H3            1 RES     
    8278 H3         269.8576  -229.1687  -182.4803 H3            1 RES     
    8279 N4         271.4716  -225.2429  -185.0338 N4            1 RES     
    8280 C1         270.7391  -225.6588  -183.9593 C1            1 RES     
    8281 C1         271.2118  -226.6848  -183.1229 C1            1 RES     
    8282 C1         272.4571  -227.2468  -183.4097 C1            1 RES     
    8283 N4         273.0534  -228.2021  -182.6512 N4            1 RES     
    8284 S2         274.4959  -228.4173  -183.4287 S2            1 RES     
    8285 N4         274.4217  -227.3595  -184.6991 N4            1 RES     
    8286 C1         273.2071  -226.7839  -184.5199 C1            1 RES     
    8287 C1         272.6858  -225.7828  -185.3352 C1            1 RES     
    8288 H5         269.7774  -225.1944  -183.7586 H5            1 RES     
    8289 C0         267.2276  -229.8172  -180.4167 C0            1 RES     
    8290 C0         266.2438  -228.8281  -181.1486 C0            1 RES     
    8291 C0         265.0099  -229.7070  -181.5579 C0            1 RES     
    8292 C0         263.9038  -229.0151  -182.3641 C0            1 RES     
    8293 C0         262.7183  -229.9618  -182.6660 C0            1 RES     
    8294 C0         263.0472  -231.1957  -183.5350 C0            1 RES     
    8295 C0         263.7097  -230.8780  -184.8871 C0            1 RES     
    8296 C0         262.8668  -229.9362  -185.7652 C0            1 RES     
    8297 C0         263.5551  -229.5761  -187.0896 C0            1 RES     
    8298 C0         263.7025  -230.7755  -188.0411 C0            1 RES     
    8299 C0         264.2874  -230.3814  -189.4067 C0            1 RES     
    8300 C0         265.7311  -229.8843  -189.3228 C0            1 RES     
    8301 C0         265.8112  -227.5031  -180.4397 C0            1 RES     
    8302 C0         264.9647  -227.5793  -179.1319 C0            1 RES     
    8303 C0         265.7313  -226.8824  -178.0038 C0            1 RES     
    8304 C0         265.2605  -227.1102  -176.5701 C0            1 RES     
    8305 C0         264.0593  -226.2948  -176.1143 C0            1 RES     
    8306 C0         263.7885  -226.6434  -174.6357 C0            1 RES     
    8307 C0         262.7280  -225.7664  -173.9661 C0            1 RES     
    8308 C0         263.1970  -224.3206  -173.7905 C0            1 RES     
    8309 H6         266.6104  -230.3233  -179.7191 H6            1 RES     
    8310 H6         267.4933  -230.5458  -181.2156 H6            1 RES     
    8311 H6         266.7612  -228.4936  -182.0754 H6            1 RES     
    8312 H6         264.5361  -230.1227  -180.6418 H6            1 RES     
    8313 H6         265.3880  -230.5626  -182.1575 H6            1 RES     
    8314 H6         264.3207  -228.5980  -183.3033 H6            1 RES     
    8315 H6         263.4855  -228.1795  -181.7673 H6            1 RES     
    8316 H6         261.9246  -229.3711  -183.1684 H6            1 RES     
    8317 H6         262.2832  -230.3222  -181.7076 H6            1 RES     
    8318 H6         262.1002  -231.7508  -183.7178 H6            1 RES     
    8319 H6         263.7177  -231.8810  -182.9736 H6            1 RES     
    8320 H6         264.7064  -230.4222  -184.7083 H6            1 RES     
    8321 H6         263.8681  -231.8432  -185.4115 H6            1 RES     
    8322 H6         262.7184  -228.9795  -185.2241 H6            1 RES     
    8323 H6         261.8684  -230.3841  -185.9636 H6            1 RES     
    8324 H6         262.9292  -228.8086  -187.5949 H6            1 RES     
    8325 H6         264.5437  -229.1246  -186.8628 H6            1 RES     
    8326 H6         264.3423  -231.5632  -187.5920 H6            1 RES     
    8327 H6         262.6912  -231.2029  -188.2171 H6            1 RES     
    8328 H6         263.6509  -229.6014  -189.8787 H6            1 RES     
    8329 H6         264.2738  -231.2800  -190.0605 H6            1 RES     
    8330 H6         265.8044  -228.9540  -188.7242 H6            1 RES     
    8331 H6         266.3794  -230.6652  -188.8715 H6            1 RES     
    8332 H6         266.1027  -229.6613  -190.3449 H6            1 RES     
    8333 H6         265.2192  -226.9100  -181.1693 H6            1 RES     
    8334 H6         266.7159  -226.8739  -180.2979 H6            1 RES     
    8335 H6         263.9892  -227.0592  -179.2620 H6            1 RES     
    8336 H6         264.7600  -228.6376  -178.8716 H6            1 RES     
    8337 H6         265.8987  -225.8044  -178.2111 H6            1 RES     
    8338 H6         266.6856  -227.3642  -178.0223 H6            1 RES     
    8339 H6         265.0921  -228.1787  -176.4149 H6            1 RES     
    8340 H6         266.1081  -226.8131  -175.9114 H6            1 RES     
    8341 H6         264.3289  -225.2232  -176.2254 H6            1 RES     
    8342 H6         263.1625  -226.5126  -176.7320 H6            1 RES     
    8343 H6         263.4582  -227.7059  -174.5882 H6            1 RES     
    8344 H6         264.7240  -226.5562  -174.0374 H6            1 RES     
    8345 H6         262.5405  -226.1794  -172.9505 H6            1 RES     
    8346 H6         261.7789  -225.8027  -174.5411 H6            1 RES     
    8347 H6         263.3673  -223.8269  -174.7676 H6            1 RES     
    8348 H6         262.4248  -223.7448  -173.2410 H6            1 RES     
    8349 H6         264.1404  -224.2934  -173.2006 H6            1 RES     
    8350 C0         269.4103  -230.8639  -179.4314 C0            1 RES     
    8351 C0         268.8177  -232.3453  -179.4492 C0            1 RES     
    8352 C0         269.8190  -233.2320  -178.6346 C0            1 RES     
    8353 C0         269.5968  -234.7545  -178.7377 C0            1 RES     
    8354 C0         270.5877  -235.5852  -177.9032 C0            1 RES     
    8355 C0         272.0742  -235.4120  -178.2628 C0            1 RES     
    8356 C0         272.4195  -235.6420  -179.7435 C0            1 RES     
    8357 C0         272.0148  -237.0349  -180.2574 C0            1 RES     
    8358 C0         272.3621  -237.2469  -181.7399 C0            1 RES     
    8359 C0         273.8786  -237.2752  -182.0015 C0            1 RES     
    8360 C0         274.2300  -237.6111  -183.4592 C0            1 RES     
    8361 C0         273.7755  -236.5407  -184.4516 C0            1 RES     
    8362 C0         267.3141  -232.7351  -179.1265 C0            1 RES     
    8363 C0         266.7141  -232.5899  -177.6993 C0            1 RES     
    8364 C0         265.7374  -231.4051  -177.5919 C0            1 RES     
    8365 C0         265.1422  -231.1354  -176.2198 C0            1 RES     
    8366 C0         264.0871  -232.1125  -175.7206 C0            1 RES     
    8367 C0         263.5204  -231.5336  -174.4080 C0            1 RES     
    8368 C0         262.3318  -232.3071  -173.8343 C0            1 RES     
    8369 C0         261.0868  -232.1961  -174.7155 C0            1 RES     
    8370 H6         270.0006  -230.7278  -178.4954 H6            1 RES     
    8371 H6         270.2299  -230.8896  -180.1847 H6            1 RES     
    8372 H6         268.9021  -232.6488  -180.5183 H6            1 RES     
    8373 H6         269.7736  -232.9399  -177.5632 H6            1 RES     
    8374 H6         270.8437  -233.0139  -179.0050 H6            1 RES     
    8375 H6         269.6415  -235.0607  -179.8039 H6            1 RES     
    8376 H6         268.6016  -235.0263  -178.3356 H6            1 RES     
    8377 H6         270.3119  -236.6553  -178.0181 H6            1 RES     
    8378 H6         270.4596  -235.3346  -176.8272 H6            1 RES     
    8379 H6         272.6603  -236.1200  -177.6370 H6            1 RES     
    8380 H6         272.4005  -234.3862  -177.9882 H6            1 RES     
    8381 H6         271.9255  -234.8650  -180.3653 H6            1 RES     
    8382 H6         273.5160  -235.5057  -179.8393 H6            1 RES     
    8383 H6         270.9138  -237.1445  -180.1682 H6            1 RES     
    8384 H6         272.4941  -237.8269  -179.6423 H6            1 RES     
    8385 H6         271.9392  -238.2281  -182.0473 H6            1 RES     
    8386 H6         271.8701  -236.4525  -182.3404 H6            1 RES     
    8387 H6         274.3461  -236.3037  -181.7395 H6            1 RES     
    8388 H6         274.3253  -238.0638  -181.3573 H6            1 RES     
    8389 H6         273.7859  -238.5915  -183.7376 H6            1 RES     
    8390 H6         275.3354  -237.6985  -183.5345 H6            1 RES     
    8391 H6         272.6712  -236.4431  -184.4621 H6            1 RES     
    8392 H6         274.2304  -235.5606  -184.1941 H6            1 RES     
    8393 H6         274.1030  -236.8259  -185.4734 H6            1 RES     
    8394 H6         267.2493  -233.8134  -179.3615 H6            1 RES     
    8395 H6         266.5988  -232.3884  -179.8958 H6            1 RES     
    8396 H6         266.0826  -233.4849  -177.5054 H6            1 RES     
    8397 H6         267.5144  -232.5755  -176.9320 H6            1 RES     
    8398 H6         264.9227  -231.5085  -178.3441 H6            1 RES     
    8399 H6         266.2626  -230.4785  -177.7949 H6            1 RES     
    8400 H6         265.9558  -231.0046  -175.4736 H6            1 RES     
    8401 H6         264.5978  -230.1833  -176.3318 H6            1 RES     
    8402 H6         263.2925  -232.1773  -176.4937 H6            1 RES     
    8403 H6         264.5199  -233.1210  -175.5548 H6            1 RES     
    8404 H6         264.3388  -231.5231  -173.6547 H6            1 RES     
    8405 H6         263.1910  -230.4800  -174.5608 H6            1 RES     
    8406 H6         262.0850  -231.8515  -172.8501 H6            1 RES     
    8407 H6         262.6079  -233.3683  -173.6749 H6            1 RES     
    8408 H6         261.2470  -232.6688  -175.7049 H6            1 RES     
    8409 H6         260.2391  -232.7106  -174.2182 H6            1 RES     
    8410 H6         260.8125  -231.1283  -174.8619 H6            1 RES     
    8411 C0         274.6683  -225.2186  -190.3681 C0            1 RES     
    8412 C1         274.2949  -225.0519  -188.8786 C1            1 RES     
    8413 C1         275.0856  -224.1471  -188.2453 C1            1 RES     
    8414 S2         274.7676  -224.0101  -186.6074 S2            1 RES     
    8415 C1         273.5648  -225.2100  -186.6729 C1            1 RES     
    8416 C1         273.4348  -225.7005  -187.9768 C1            1 RES     
    8417 C1         276.0414  -223.6578  -189.1617 C1            1 RES     
    8418 C1         275.8934  -224.3031  -190.3502 C1            1 RES     
    8419 C1         276.8933  -223.9749  -191.2577 C1            1 RES     
    8420 C1         277.7721  -223.0283  -190.7046 C1            1 RES     
    8421 S2         277.3360  -222.6143  -189.1166 S2            1 RES     
    8422 H3         272.7786  -226.5183  -188.2069 H3            1 RES     
    8423 H3         276.9833  -224.3965  -192.2517 H3            1 RES     
    8424 N4         280.2959  -220.7136  -192.2286 N4            1 RES     
    8425 C1         279.1282  -221.1760  -191.6931 C1            1 RES     
    8426 C1         278.9947  -222.5248  -191.3205 C1            1 RES     
    8427 C1         280.0944  -223.3673  -191.4924 C1            1 RES     
    8428 N4         280.1175  -224.6732  -191.1217 N4            1 RES     
    8429 S2         281.6627  -225.1188  -191.5033 S2            1 RES     
    8430 N4         282.3292  -223.7385  -192.1270 N4            1 RES     
    8431 C1         281.3021  -222.8583  -192.0324 C1            1 RES     
    8432 C1         281.3785  -221.5206  -192.4112 C1            1 RES     
    8433 H5         278.2938  -220.4920  -191.5642 H5            1 RES     
    8434 C0         273.6820  -224.7067  -191.4762 C0            1 RES     
    8435 C0         273.3101  -223.2388  -191.9106 C0            1 RES     
    8436 C0         272.1745  -223.4045  -192.9808 C0            1 RES     
    8437 C0         271.6567  -222.1228  -193.6451 C0            1 RES     
    8438 C0         270.5071  -222.4019  -194.6418 C0            1 RES     
    8439 C0         270.8683  -223.2878  -195.8544 C0            1 RES     
    8440 C0         272.0607  -222.7886  -196.6893 C0            1 RES     
    8441 C0         271.8613  -221.3626  -197.2328 C0            1 RES     
    8442 C0         273.0753  -220.8458  -198.0182 C0            1 RES     
    8443 C0         273.3144  -221.6069  -199.3332 C0            1 RES     
    8444 C0         274.4598  -221.0086  -200.1654 C0            1 RES     
    8445 C0         275.8258  -221.1371  -199.4902 C0            1 RES     
    8446 C0         272.9394  -222.1808  -190.8205 C0            1 RES     
    8447 C0         271.6537  -222.3887  -189.9623 C0            1 RES     
    8448 C0         272.0497  -222.4575  -188.4843 C0            1 RES     
    8449 C0         271.0165  -222.9776  -187.4890 C0            1 RES     
    8450 C0         269.9459  -221.9908  -187.0467 C0            1 RES     
    8451 C0         269.0468  -222.7039  -186.0151 C0            1 RES     
    8452 C0         268.0316  -221.7893  -185.3258 C0            1 RES     
    8453 C0         268.7017  -220.7728  -184.3990 C0            1 RES     
    8454 H6         272.7452  -225.1590  -191.2724 H6            1 RES     
    8455 H6         274.0713  -225.1573  -192.4170 H6            1 RES     
    8456 H6         274.2098  -222.8190  -192.4135 H6            1 RES     
    8457 H6         271.3000  -223.9067  -192.5124 H6            1 RES     
    8458 H6         272.5577  -224.0748  -193.7798 H6            1 RES     
    8459 H6         272.4898  -221.5905  -194.1476 H6            1 RES     
    8460 H6         271.2342  -221.4541  -192.8682 H6            1 RES     
    8461 H6         270.1266  -221.4271  -195.0110 H6            1 RES     
    8462 H6         269.6628  -222.8852  -194.1021 H6            1 RES     
    8463 H6         269.9716  -223.3572  -196.5098 H6            1 RES     
    8464 H6         271.0947  -224.3196  -195.5101 H6            1 RES     
    8465 H6         272.9812  -222.8219  -196.0693 H6            1 RES     
    8466 H6         272.1940  -223.4991  -197.5314 H6            1 RES     
    8467 H6         271.7285  -220.6688  -196.3778 H6            1 RES     
    8468 H6         270.9487  -221.3151  -197.8665 H6            1 RES     
    8469 H6         272.8848  -219.7788  -198.2659 H6            1 RES     
    8470 H6         273.9689  -220.8964  -197.3613 H6            1 RES     
    8471 H6         273.5349  -222.6770  -199.1389 H6            1 RES     
    8472 H6         272.3860  -221.5448  -199.9418 H6            1 RES     
    8473 H6         274.2496  -219.9384  -200.3817 H6            1 RES     
    8474 H6         274.5051  -221.5538  -201.1328 H6            1 RES     
    8475 H6         275.8625  -220.5673  -198.5399 H6            1 RES     
    8476 H6         276.0544  -222.2052  -199.2888 H6            1 RES     
    8477 H6         276.6080  -220.7272  -200.1630 H6            1 RES     
    8478 H6         272.8285  -221.1993  -191.3293 H6            1 RES     
    8479 H6         273.8308  -222.0177  -190.1776 H6            1 RES     
    8480 H6         270.9490  -221.5370  -190.0938 H6            1 RES     
    8481 H6         271.1343  -223.3179  -190.2729 H6            1 RES     
    8482 H6         272.5194  -221.5161  -188.1294 H6            1 RES     
    8483 H6         272.8022  -223.2170  -188.4677 H6            1 RES     
    8484 H6         270.5684  -223.8926  -187.8842 H6            1 RES     
    8485 H6         271.5804  -223.2592  -186.5707 H6            1 RES     
    8486 H6         270.4676  -221.1254  -186.5858 H6            1 RES     
    8487 H6         269.3394  -221.6367  -187.9070 H6            1 RES     
    8488 H6         268.4978  -223.5171  -186.5420 H6            1 RES     
    8489 H6         269.6664  -223.1781  -185.2203 H6            1 RES     
    8490 H6         267.3742  -222.4285  -184.6962 H6            1 RES     
    8491 H6         267.4019  -221.2742  -186.0814 H6            1 RES     
    8492 H6         269.3465  -220.0710  -184.9638 H6            1 RES     
    8493 H6         267.9243  -220.1826  -183.8728 H6            1 RES     
    8494 H6         269.3185  -221.2990  -183.6364 H6            1 RES     
    8495 C0         275.0121  -226.7512  -190.5373 C0            1 RES     
    8496 C0         274.1619  -227.8077  -191.3782 C0            1 RES     
    8497 C0         274.5397  -229.2221  -190.8223 C0            1 RES     
    8498 C0         274.0445  -230.4203  -191.6572 C0            1 RES     
    8499 C0         274.4175  -231.7895  -191.0619 C0            1 RES     
    8500 C0         275.9240  -232.0600  -190.9000 C0            1 RES     
    8501 C0         276.7624  -231.8733  -192.1755 C0            1 RES     
    8502 C0         276.2941  -232.7506  -193.3499 C0            1 RES     
    8503 C0         277.1389  -232.5484  -194.6183 C0            1 RES     
    8504 C0         278.5891  -233.0380  -194.4562 C0            1 RES     
    8505 C0         279.4004  -232.9529  -195.7585 C0            1 RES     
    8506 C0         279.6211  -231.5186  -196.2393 C0            1 RES     
    8507 C0         272.6066  -227.7051  -191.6739 C0            1 RES     
    8508 C0         271.5431  -227.8534  -190.5492 C0            1 RES     
    8509 C0         270.8916  -226.5092  -190.1778 C0            1 RES     
    8510 C0         269.8815  -226.5325  -189.0424 C0            1 RES     
    8511 C0         268.5273  -227.1626  -189.3358 C0            1 RES     
    8512 C0         267.6346  -226.9089  -188.1038 C0            1 RES     
    8513 C0         266.1771  -227.3399  -188.2765 C0            1 RES     
    8514 C0         265.4360  -226.4832  -189.3041 C0            1 RES     
    8515 H6         275.2020  -227.1736  -189.5231 H6            1 RES     
    8516 H6         276.0337  -226.8133  -190.9760 H6            1 RES     
    8517 H6         274.5894  -227.7311  -192.4045 H6            1 RES     
    8518 H6         274.1435  -229.3236  -189.7888 H6            1 RES     
    8519 H6         275.6481  -229.2811  -190.7705 H6            1 RES     
    8520 H6         274.4349  -230.3326  -192.6928 H6            1 RES     
    8521 H6         272.9381  -230.4295  -191.6986 H6            1 RES     
    8522 H6         273.9794  -232.5731  -191.7162 H6            1 RES     
    8523 H6         273.9365  -231.8981  -190.0649 H6            1 RES     
    8524 H6         276.0449  -233.1028  -190.5332 H6            1 RES     
    8525 H6         276.3349  -231.3884  -190.1162 H6            1 RES     
    8526 H6         276.7375  -230.8062  -192.4836 H6            1 RES     
    8527 H6         277.8090  -232.1242  -191.9078 H6            1 RES     
    8528 H6         275.2519  -232.4727  -193.6123 H6            1 RES     
    8529 H6         276.3052  -233.8230  -193.0581 H6            1 RES     
    8530 H6         276.6646  -233.1347  -195.4352 H6            1 RES     
    8531 H6         277.1112  -231.4743  -194.8998 H6            1 RES     
    8532 H6         279.1189  -232.4607  -193.6707 H6            1 RES     
    8533 H6         278.5604  -234.1056  -194.1467 H6            1 RES     
    8534 H6         278.8958  -233.5408  -196.5558 H6            1 RES     
    8535 H6         280.3973  -233.4073  -195.5722 H6            1 RES     
    8536 H6         278.6610  -231.0261  -196.4938 H6            1 RES     
    8537 H6         280.1434  -230.9276  -195.4571 H6            1 RES     
    8538 H6         280.2512  -231.5316  -197.1533 H6            1 RES     
    8539 H6         272.4020  -228.5316  -192.3790 H6            1 RES     
    8540 H6         272.3466  -226.8775  -192.3604 H6            1 RES     
    8541 H6         270.7050  -228.4621  -190.9545 H6            1 RES     
    8542 H6         271.9597  -228.3994  -189.6787 H6            1 RES     
    8543 H6         270.4365  -226.0399  -191.0795 H6            1 RES     
    8544 H6         271.6453  -225.8309  -189.7938 H6            1 RES     
    8545 H6         270.3441  -226.9756  -188.1338 H6            1 RES     
    8546 H6         269.6505  -225.4719  -188.8500 H6            1 RES     
    8547 H6         268.1070  -226.6602  -190.2325 H6            1 RES     
    8548 H6         268.6252  -228.2497  -189.5372 H6            1 RES     
    8549 H6         268.0720  -227.4600  -187.2423 H6            1 RES     
    8550 H6         267.6339  -225.8252  -187.8438 H6            1 RES     
    8551 H6         265.6716  -227.1962  -187.2964 H6            1 RES     
    8552 H6         266.1258  -228.4129  -188.5484 H6            1 RES     
    8553 H6         265.8624  -226.6081  -190.3192 H6            1 RES     
    8554 H6         264.3701  -226.7891  -189.3354 H6            1 RES     
    8555 H6         265.4851  -225.4097  -189.0177 H6            1 RES     
    8556 C0         285.2481  -220.0195  -195.9256 C0            1 RES     
    8557 C1         284.3672  -220.2536  -194.6787 C1            1 RES     
    8558 C1         285.0251  -219.9806  -193.5220 C1            1 RES     
    8559 S2         284.1289  -220.3121  -192.1475 S2            1 RES     
    8560 C1         282.8150  -220.8854  -193.0617 C1            1 RES     
    8561 C1         283.1019  -220.8106  -194.4291 C1            1 RES     
    8562 C1         286.3463  -219.5912  -193.8310 C1            1 RES     
    8563 C1         286.5375  -219.6836  -195.1748 C1            1 RES     
    8564 C1         287.8590  -219.4526  -195.5375 C1            1 RES     
    8565 C1         288.6362  -219.1481  -194.4073 C1            1 RES     
    8566 S2         287.7155  -219.1798  -192.9808 S2            1 RES     
    8567 H3         282.4252  -221.1971  -195.1674 H3            1 RES     
    8568 H3         288.2359  -219.5061  -196.5519 H3            1 RES     
    8569 N4         292.0001  -217.5462  -193.9969 N4            1 RES     
    8570 C1         290.6451  -217.7030  -194.0560 C1            1 RES     
    8571 C1         290.0809  -218.9481  -194.3836 C1            1 RES     
    8572 C1         290.9434  -220.0193  -194.6229 C1            1 RES     
    8573 N4         290.5292  -221.2841  -194.8916 N4            1 RES     
    8574 S2         291.9597  -222.1031  -195.0131 S2            1 RES     
    8575 N4         293.1053  -220.9394  -194.7454 N4            1 RES     
    8576 C1         292.3463  -219.8354  -194.5360 C1            1 RES     
    8577 C1         292.8595  -218.5768  -194.2336 C1            1 RES     
    8578 H5         290.0012  -216.8510  -193.8556 H5            1 RES     
    8579 C0         284.9158  -218.8327  -196.8973 C0            1 RES     
    8580 C0         285.0795  -217.2782  -196.7010 C0            1 RES     
    8581 C0         284.4489  -216.6353  -197.9861 C0            1 RES     
    8582 C0         284.5313  -215.1087  -198.1083 C0            1 RES     
    8583 C0         283.8343  -214.5840  -199.3856 C0            1 RES     
    8584 C0         284.4362  -215.0624  -200.7253 C0            1 RES     
    8585 C0         285.9389  -214.7793  -200.8983 C0            1 RES     
    8586 C0         286.2901  -213.2865  -200.7686 C0            1 RES     
    8587 C0         287.7965  -213.0133  -200.8858 C0            1 RES     
    8588 C0         288.3574  -213.3037  -202.2882 C0            1 RES     
    8589 C0         289.8389  -212.9187  -202.4263 C0            1 RES     
    8590 C0         290.7650  -213.7636  -201.5506 C0            1 RES     
    8591 C0         284.5552  -216.6054  -195.3905 C0            1 RES     
    8592 C0         283.0246  -216.6107  -195.0904 C0            1 RES     
    8593 C0         282.7830  -217.3263  -193.7579 C0            1 RES     
    8594 C0         281.3548  -217.7411  -193.4158 C0            1 RES     
    8595 C0         280.4442  -216.6494  -192.8733 C0            1 RES     
    8596 C0         279.0788  -217.2927  -192.5526 C0            1 RES     
    8597 C0         278.1047  -216.3690  -191.8176 C0            1 RES     
    8598 C0         278.5645  -216.0569  -190.3920 C0            1 RES     
    8599 H6         283.8994  -218.9507  -197.1740 H6            1 RES     
    8600 H6         285.5327  -219.0393  -197.8009 H6            1 RES     
    8601 H6         286.1730  -217.0713  -196.7037 H6            1 RES     
    8602 H6         283.3731  -216.9108  -198.0435 H6            1 RES     
    8603 H6         284.9560  -217.0785  -198.8698 H6            1 RES     
    8604 H6         285.5901  -214.7804  -198.0772 H6            1 RES     
    8605 H6         283.9975  -214.6449  -197.2544 H6            1 RES     
    8606 H6         283.8554  -213.4749  -199.3592 H6            1 RES     
    8607 H6         282.7617  -214.8788  -199.3658 H6            1 RES     
    8608 H6         283.8775  -214.5672  -201.5506 H6            1 RES     
    8609 H6         284.2746  -216.1557  -200.8392 H6            1 RES     
    8610 H6         286.5100  -215.3597  -200.1433 H6            1 RES     
    8611 H6         286.2309  -215.1508  -201.9024 H6            1 RES     
    8612 H6         285.9898  -212.9342  -199.7608 H6            1 RES     
    8613 H6         285.7346  -212.6921  -201.5267 H6            1 RES     
    8614 H6         287.9600  -211.9361  -200.6641 H6            1 RES     
    8615 H6         288.3253  -213.6115  -200.1143 H6            1 RES     
    8616 H6         288.2408  -214.3760  -202.5489 H6            1 RES     
    8617 H6         287.7811  -212.6995  -203.0224 H6            1 RES     
    8618 H6         289.9733  -211.8424  -202.1817 H6            1 RES     
    8619 H6         290.1382  -213.0718  -203.4857 H6            1 RES     
    8620 H6         290.5511  -213.6134  -200.4732 H6            1 RES     
    8621 H6         290.6535  -214.8397  -201.8022 H6            1 RES     
    8622 H6         291.8181  -213.4635  -201.7334 H6            1 RES     
    8623 H6         284.8733  -215.5410  -195.4092 H6            1 RES     
    8624 H6         285.1348  -217.0134  -194.5349 H6            1 RES     
    8625 H6         282.6358  -215.5714  -195.0020 H6            1 RES     
    8626 H6         282.4769  -217.1157  -195.9118 H6            1 RES     
    8627 H6         283.2716  -216.8077  -192.9062 H6            1 RES     
    8628 H6         283.2800  -218.2637  -193.8898 H6            1 RES     
    8629 H6         280.9072  -218.2307  -194.2842 H6            1 RES     
    8630 H6         281.4356  -218.5085  -192.6126 H6            1 RES     
    8631 H6         280.9208  -216.2523  -191.9520 H6            1 RES     
    8632 H6         280.3188  -215.8239  -193.6054 H6            1 RES     
    8633 H6         278.6153  -217.6119  -193.5136 H6            1 RES     
    8634 H6         279.2150  -218.2042  -191.9271 H6            1 RES     
    8635 H6         277.1291  -216.8980  -191.7426 H6            1 RES     
    8636 H6         277.9531  -215.4321  -192.3937 H6            1 RES     
    8637 H6         279.5172  -215.4915  -190.3866 H6            1 RES     
    8638 H6         277.7947  -215.4442  -189.8803 H6            1 RES     
    8639 H6         278.6992  -217.0010  -189.8182 H6            1 RES     
    8640 C0         285.2818  -221.4108  -196.6730 C0            1 RES     
    8641 C0         284.6187  -221.7212  -198.0908 C0            1 RES     
    8642 C0         284.4245  -223.2737  -198.1578 C0            1 RES     
    8643 C0         284.0446  -223.8386  -199.5414 C0            1 RES     
    8644 C0         283.8406  -225.3639  -199.5555 C0            1 RES     
    8645 C0         285.0621  -226.2055  -199.1447 C0            1 RES     
    8646 C0         286.3523  -225.9103  -199.9275 C0            1 RES     
    8647 C0         286.2007  -226.0905  -201.4482 C0            1 RES     
    8648 C0         287.4974  -225.7868  -202.2162 C0            1 RES     
    8649 C0         288.6200  -226.7971  -201.9191 C0            1 RES     
    8650 C0         289.8740  -226.5705  -202.7778 C0            1 RES     
    8651 C0         290.5775  -225.2461  -202.4808 C0            1 RES     
    8652 C0         283.3690  -220.9606  -198.7045 C0            1 RES     
    8653 C0         281.9455  -221.0879  -198.0919 C0            1 RES     
    8654 C0         281.5159  -219.8164  -197.3382 C0            1 RES     
    8655 C0         280.1636  -219.8591  -196.6460 C0            1 RES     
    8656 C0         278.9301  -219.8059  -197.5364 C0            1 RES     
    8657 C0         277.7060  -219.6856  -196.6056 C0            1 RES     
    8658 C0         276.3771  -219.4642  -197.3303 C0            1 RES     
    8659 C0         276.3085  -218.0974  -198.0130 C0            1 RES     
    8660 H6         284.9598  -222.1959  -195.9498 H6            1 RES     
    8661 H6         286.3522  -221.6870  -196.8070 H6            1 RES     
    8662 H6         285.4201  -221.4568  -198.8188 H6            1 RES     
    8663 H6         283.6428  -223.5736  -197.4268 H6            1 RES     
    8664 H6         285.3807  -223.7486  -197.8495 H6            1 RES     
    8665 H6         284.8189  -223.5478  -200.2820 H6            1 RES     
    8666 H6         283.0710  -223.4269  -199.8711 H6            1 RES     
    8667 H6         283.5326  -225.6541  -200.5828 H6            1 RES     
    8668 H6         282.9960  -225.6262  -198.8811 H6            1 RES     
    8669 H6         284.7950  -227.2774  -199.2721 H6            1 RES     
    8670 H6         285.2701  -226.0468  -198.0651 H6            1 RES     
    8671 H6         286.6874  -224.8728  -199.7138 H6            1 RES     
    8672 H6         287.1261  -226.6030  -199.5382 H6            1 RES     
    8673 H6         285.4349  -225.3780  -201.8196 H6            1 RES     
    8674 H6         285.8585  -227.1219  -201.6818 H6            1 RES     
    8675 H6         287.2646  -225.8371  -203.3022 H6            1 RES     
    8676 H6         287.8211  -224.7515  -201.9775 H6            1 RES     
    8677 H6         288.9126  -226.7640  -200.8494 H6            1 RES     
    8678 H6         288.2364  -227.8158  -202.1458 H6            1 RES     
    8679 H6         289.6062  -226.6179  -203.8557 H6            1 RES     
    8680 H6         290.5903  -227.3927  -202.5630 H6            1 RES     
    8681 H6         289.9294  -224.3809  -202.7268 H6            1 RES     
    8682 H6         290.8678  -225.1974  -201.4096 H6            1 RES     
    8683 H6         291.4958  -225.1722  -203.1004 H6            1 RES     
    8684 H6         283.2800  -221.3558  -199.7331 H6            1 RES     
    8685 H6         283.5897  -219.9131  -198.9834 H6            1 RES     
    8686 H6         281.2215  -221.1666  -198.9326 H6            1 RES     
    8687 H6         281.8549  -222.0132  -197.4877 H6            1 RES     
    8688 H6         281.5674  -218.9326  -198.0138 H6            1 RES     
    8689 H6         282.1884  -219.6395  -196.5063 H6            1 RES     
    8690 H6         280.1219  -220.7255  -195.9506 H6            1 RES     
    8691 H6         280.1168  -218.9247  -196.0627 H6            1 RES     
    8692 H6         279.0181  -218.9078  -198.1837 H6            1 RES     
    8693 H6         278.8557  -220.7111  -198.1742 H6            1 RES     
    8694 H6         277.6363  -220.6198  -196.0060 H6            1 RES     
    8695 H6         277.8435  -218.8391  -195.8940 H6            1 RES     
    8696 H6         275.5731  -219.4938  -196.5625 H6            1 RES     
    8697 H6         276.2004  -220.2783  -198.0609 H6            1 RES     
    8698 H6         277.0599  -218.0106  -198.8228 H6            1 RES     
    8699 H6         275.3015  -217.9603  -198.4576 H6            1 RES     
    8700 H6         276.4779  -217.2870  -197.2703 H6            1 RES     
    8701 C0         298.0255  -217.4826  -195.5348 C0            1 RES     
    8702 C1         296.6979  -217.7933  -194.8090 C1            1 RES     
    8703 C1         296.8919  -218.1984  -193.5270 C1            1 RES     
    8704 S2         295.4790  -218.6317  -192.7405 S2            1 RES     
    8705 C1         294.5378  -218.3294  -194.1238 C1            1 RES     
    8706 C1         295.3470  -217.8972  -195.1802 C1            1 RES     
    8707 C1         298.2789  -218.2393  -193.2676 C1            1 RES     
    8708 C1         298.9564  -217.9244  -194.4046 C1            1 RES     
    8709 C1         300.3296  -218.0836  -194.2626 C1            1 RES     
    8710 C1         300.6474  -218.4961  -192.9575 C1            1 RES     
    8711 S2         299.2587  -218.6794  -191.9976 S2            1 RES     
    8712 H3         294.9469  -217.7279  -196.1619 H3            1 RES     
    8713 H3         301.0522  -217.9172  -195.0525 H3            1 RES     
    8714 N4         303.8443  -218.4866  -191.0005 N4            1 RES     
    8715 C1         302.6231  -218.1052  -191.4774 C1            1 RES     
    8716 C1         301.9721  -218.8608  -192.4679 C1            1 RES     
    8717 C1         302.5987  -220.0194  -192.9302 C1            1 RES     
    8718 N4         302.0541  -220.8673  -193.8401 N4            1 RES     
    8719 S2         303.1973  -222.0569  -193.9389 S2            1 RES     
    8720 N4         304.3728  -221.5638  -192.8837 N4            1 RES     
    8721 C1         303.8577  -220.4045  -192.4049 C1            1 RES     
    8722 C1         304.4760  -219.6099  -191.4431 C1            1 RES     
    8723 H5         302.1585  -217.2026  -191.0900 H5            1 RES     
    8724 C0         298.3730  -215.9998  -195.9132 C0            1 RES     
    8725 C0         298.7865  -214.7847  -194.9997 C0            1 RES     
    8726 C0         298.8703  -213.5540  -195.9697 C0            1 RES     
    8727 C0         299.3300  -212.2232  -195.3615 C0            1 RES     
    8728 C0         299.3252  -211.0729  -196.3958 C0            1 RES     
    8729 C0         300.2822  -211.2435  -197.5961 C0            1 RES     
    8730 C0         301.7543  -211.4896  -197.2212 C0            1 RES     
    8731 C0         302.3477  -210.3736  -196.3432 C0            1 RES     
    8732 C0         303.7990  -210.6490  -195.9243 C0            1 RES     
    8733 C0         304.7856  -210.6204  -197.1038 C0            1 RES     
    8734 C0         306.2477  -210.7829  -196.6587 C0            1 RES     
    8735 C0         306.5437  -212.1547  -196.0516 C0            1 RES     
    8736 C0         297.9533  -214.4645  -193.7158 C0            1 RES     
    8737 C0         296.4680  -214.0121  -193.8640 C0            1 RES     
    8738 C0         295.5709  -215.0025  -193.1154 C0            1 RES     
    8739 C0         294.0698  -214.9559  -193.3862 C0            1 RES     
    8740 C0         293.2859  -213.8668  -192.6687 C0            1 RES     
    8741 C0         291.7986  -214.0331  -193.0447 C0            1 RES     
    8742 C0         290.8452  -213.1325  -192.2559 C0            1 RES     
    8743 C0         290.7655  -213.5242  -190.7789 C0            1 RES     
    8744 H6         297.5481  -215.6336  -196.4692 H6            1 RES     
    8745 H6         299.2325  -216.0917  -196.6151 H6            1 RES     
    8746 H6         299.8096  -215.0056  -194.6215 H6            1 RES     
    8747 H6         297.8714  -213.3779  -196.4254 H6            1 RES     
    8748 H6         299.5715  -213.8170  -196.7903 H6            1 RES     
    8749 H6         300.3358  -212.3382  -194.9087 H6            1 RES     
    8750 H6         298.6211  -211.9222  -194.5639 H6            1 RES     
    8751 H6         299.5794  -210.1317  -195.8659 H6            1 RES     
    8752 H6         298.2945  -210.9415  -196.7936 H6            1 RES     
    8753 H6         300.2170  -210.3257  -198.2221 H6            1 RES     
    8754 H6         299.9404  -212.0893  -198.2302 H6            1 RES     
    8755 H6         301.8393  -212.4613  -196.6905 H6            1 RES     
    8756 H6         302.3267  -211.5703  -198.1686 H6            1 RES     
    8757 H6         301.7622  -210.3076  -195.4036 H6            1 RES     
    8758 H6         302.2809  -209.3945  -196.8662 H6            1 RES     
    8759 H6         304.0967  -209.8550  -195.2051 H6            1 RES     
    8760 H6         303.8358  -211.6262  -195.3986 H6            1 RES     
    8761 H6         304.5463  -211.4139  -197.8418 H6            1 RES     
    8762 H6         304.6931  -209.6335  -197.6075 H6            1 RES     
    8763 H6         306.5101  -209.9869  -195.9280 H6            1 RES     
    8764 H6         306.8966  -210.6585  -197.5524 H6            1 RES     
    8765 H6         305.9633  -212.3192  -195.1215 H6            1 RES     
    8766 H6         306.3044  -212.9565  -196.7822 H6            1 RES     
    8767 H6         307.6220  -212.2181  -195.7953 H6            1 RES     
    8768 H6         298.4804  -213.6551  -193.1668 H6            1 RES     
    8769 H6         298.0447  -215.3252  -193.0191 H6            1 RES     
    8770 H6         296.3165  -213.0024  -193.4205 H6            1 RES     
    8771 H6         296.1895  -213.9638  -194.9363 H6            1 RES     
    8772 H6         295.7879  -215.0280  -192.0267 H6            1 RES     
    8773 H6         295.8587  -215.9488  -193.5216 H6            1 RES     
    8774 H6         293.9025  -214.9146  -194.4653 H6            1 RES     
    8775 H6         293.6567  -215.9261  -193.0276 H6            1 RES     
    8776 H6         293.4379  -214.0169  -191.5789 H6            1 RES     
    8777 H6         293.6441  -212.8546  -192.9523 H6            1 RES     
    8778 H6         291.6912  -213.8068  -194.1298 H6            1 RES     
    8779 H6         291.4728  -215.0867  -192.8882 H6            1 RES     
    8780 H6         289.8277  -213.2580  -192.6873 H6            1 RES     
    8781 H6         291.1436  -212.0684  -192.3628 H6            1 RES     
    8782 H6         291.7391  -213.3867  -190.2687 H6            1 RES     
    8783 H6         290.0133  -212.8898  -190.2676 H6            1 RES     
    8784 H6         290.4515  -214.5876  -190.6817 H6            1 RES     
    8785 C0         298.0406  -218.4384  -196.7924 C0            1 RES     
    8786 C0         297.9361  -217.9735  -198.3153 C0            1 RES     
    8787 C0         297.4450  -219.2202  -199.1257 C0            1 RES     
    8788 C0         297.5236  -219.0907  -200.6603 C0            1 RES     
    8789 C0         297.0092  -220.3287  -201.4159 C0            1 RES     
    8790 C0         297.7520  -221.6452  -201.1261 C0            1 RES     
    8791 C0         299.2763  -221.5923  -201.3212 C0            1 RES     
    8792 C0         299.6978  -221.1666  -202.7387 C0            1 RES     
    8793 C0         301.2239  -221.1137  -202.9157 C0            1 RES     
    8794 C0         301.8857  -222.5004  -202.8250 C0            1 RES     
    8795 C0         303.3923  -222.4673  -203.1254 C0            1 RES     
    8796 C0         304.1972  -221.6836  -202.0885 C0            1 RES     
    8797 C0         297.2298  -216.6463  -198.8221 C0            1 RES     
    8798 C0         295.6904  -216.4466  -198.7310 C0            1 RES     
    8799 C0         295.2929  -215.4515  -197.6260 C0            1 RES     
    8800 C0         293.8046  -215.2323  -197.4102 C0            1 RES     
    8801 C0         293.0646  -214.4265  -198.4686 C0            1 RES     
    8802 C0         291.6333  -214.1960  -197.9420 C0            1 RES     
    8803 C0         290.7803  -213.2673  -198.8082 C0            1 RES     
    8804 C0         291.2898  -211.8254  -198.7897 C0            1 RES     
    8805 H6         297.2954  -219.2487  -196.6157 H6            1 RES     
    8806 H6         298.9876  -219.0228  -196.7508 H6            1 RES     
    8807 H6         298.9958  -217.7869  -198.6059 H6            1 RES     
    8808 H6         296.3940  -219.4456  -198.8434 H6            1 RES     
    8809 H6         298.0725  -220.0874  -198.8270 H6            1 RES     
    8810 H6         298.5699  -218.8670  -200.9568 H6            1 RES     
    8811 H6         296.8751  -218.2644  -201.0105 H6            1 RES     
    8812 H6         297.0730  -220.1113  -202.5035 H6            1 RES     
    8813 H6         295.9324  -220.4790  -201.1813 H6            1 RES     
    8814 H6         297.3260  -222.4293  -201.7897 H6            1 RES     
    8815 H6         297.5492  -221.9577  -200.0795 H6            1 RES     
    8816 H6         299.7215  -220.8927  -200.5818 H6            1 RES     
    8817 H6         299.6609  -222.6087  -201.0998 H6            1 RES     
    8818 H6         299.3177  -220.1421  -202.9338 H6            1 RES     
    8819 H6         299.2554  -221.8514  -203.4942 H6            1 RES     
    8820 H6         301.4311  -220.6964  -203.9252 H6            1 RES     
    8821 H6         301.6487  -220.4205  -202.1589 H6            1 RES     
    8822 H6         301.7345  -222.9489  -201.8216 H6            1 RES     
    8823 H6         301.4065  -223.1615  -203.5798 H6            1 RES     
    8824 H6         303.5657  -222.0374  -204.1358 H6            1 RES     
    8825 H6         303.7653  -223.5142  -203.1264 H6            1 RES     
    8826 H6         303.9069  -220.6137  -202.0768 H6            1 RES     
    8827 H6         304.0469  -222.1182  -201.0773 H6            1 RES     
    8828 H6         305.2766  -221.7419  -202.3423 H6            1 RES     
    8829 H6         297.4663  -216.5995  -199.9010 H6            1 RES     
    8830 H6         297.7683  -215.7259  -198.5280 H6            1 RES     
    8831 H6         295.3565  -215.9587  -199.6732 H6            1 RES     
    8832 H6         295.1674  -217.4217  -198.6584 H6            1 RES     
    8833 H6         295.7998  -214.4732  -197.7885 H6            1 RES     
    8834 H6         295.6061  -215.8326  -196.6605 H6            1 RES     
    8835 H6         293.3025  -216.2058  -197.2204 H6            1 RES     
    8836 H6         293.7410  -214.6096  -196.5026 H6            1 RES     
    8837 H6         293.5961  -213.4591  -198.5909 H6            1 RES     
    8838 H6         293.0479  -214.9607  -199.4413 H6            1 RES     
    8839 H6         291.1288  -215.1848  -197.8718 H6            1 RES     
    8840 H6         291.6643  -213.7611  -196.9164 H6            1 RES     
    8841 H6         289.7547  -213.2638  -198.3780 H6            1 RES     
    8842 H6         290.7288  -213.6532  -199.8456 H6            1 RES     
    8843 H6         292.2975  -211.7457  -199.2435 H6            1 RES     
    8844 H6         290.5956  -211.1843  -199.3708 H6            1 RES     
    8845 H6         291.3291  -211.4442  -197.7456 H6            1 RES     
    8846 C0         309.8408  -220.1073  -190.7018 C0            1 RES     
    8847 C1         308.3021  -220.1404  -190.5720 C1            1 RES     
    8848 C1         307.8824  -221.0046  -189.6117 C1            1 RES     
    8849 S2         306.2165  -221.1332  -189.5080 S2            1 RES     
    8850 C1         305.9860  -220.0490  -190.7973 C1            1 RES     
    8851 C1         307.2187  -219.6068  -191.2899 C1            1 RES     
    8852 C1         309.0098  -221.6377  -189.0452 C1            1 RES     
    8853 C1         310.1305  -221.2209  -189.6942 C1            1 RES     
    8854 C1         311.2654  -221.9106  -189.2849 C1            1 RES     
    8855 C1         310.9457  -222.8346  -188.2758 C1            1 RES     
    8856 S2         309.2887  -222.8160  -187.9048 S2            1 RES     
    8857 H3         307.2843  -218.9746  -192.1549 H3            1 RES     
    8858 H3         312.2573  -221.7585  -189.6933 H3            1 RES     
    8859 N4         313.0339  -224.6742  -185.7647 N4            1 RES     
    8860 C1         312.2153  -223.7325  -186.3189 C1            1 RES     
    8861 C1         311.8554  -223.8042  -187.6758 C1            1 RES     
    8862 C1         312.3394  -224.8748  -188.4297 C1            1 RES     
    8863 N4         312.0224  -225.0931  -189.7317 N4            1 RES     
    8864 S2         312.8182  -226.5054  -190.0542 S2            1 RES     
    8865 N4         313.5628  -226.8750  -188.6233 N4            1 RES     
    8866 C1         313.1719  -225.8503  -187.8259 C1            1 RES     
    8867 C1         313.5226  -225.7229  -186.4844 C1            1 RES     
    8868 H5         311.8484  -222.9165  -185.7023 H5            1 RES     
    8869 C0         310.6281  -218.8229  -190.2623 C0            1 RES     
    8870 C0         310.9080  -218.2406  -188.8255 C0            1 RES     
    8871 C0         311.6360  -216.8728  -189.0735 C0            1 RES     
    8872 C0         312.1027  -216.1018  -187.8324 C0            1 RES     
    8873 C0         312.7590  -214.7488  -188.1948 C0            1 RES     
    8874 C0         314.0466  -214.8318  -189.0441 C0            1 RES     
    8875 C0         315.1591  -215.7133  -188.4497 C0            1 RES     
    8876 C0         315.5916  -215.2702  -187.0407 C0            1 RES     
    8877 C0         316.6618  -216.1846  -186.4275 C0            1 RES     
    8878 C0         318.0117  -216.1136  -187.1611 C0            1 RES     
    8879 C0         319.1064  -216.9435  -186.4716 C0            1 RES     
    8880 C0         318.8284  -218.4469  -186.4972 C0            1 RES     
    8881 C0         309.7313  -218.1027  -187.8049 C0            1 RES     
    8882 C0         308.5638  -217.1165  -188.1162 C0            1 RES     
    8883 C0         307.2497  -217.9022  -188.1615 C0            1 RES     
    8884 C0         306.0263  -217.2184  -188.7651 C0            1 RES     
    8885 C0         305.2863  -216.2384  -187.8665 C0            1 RES     
    8886 C0         304.0691  -215.7072  -188.6524 C0            1 RES     
    8887 C0         303.1081  -214.8527  -187.8227 C0            1 RES     
    8888 C0         302.3706  -215.6725  -186.7620 C0            1 RES     
    8889 H6         310.1909  -218.0121  -190.7870 H6            1 RES     
    8890 H6         311.6504  -218.9746  -190.6767 H6            1 RES     
    8891 H6         311.6240  -218.9370  -188.3347 H6            1 RES     
    8892 H6         310.9621  -216.1972  -189.6443 H6            1 RES     
    8893 H6         312.5258  -217.0732  -189.7080 H6            1 RES     
    8894 H6         312.7974  -216.7263  -187.2347 H6            1 RES     
    8895 H6         311.2236  -215.8579  -187.2024 H6            1 RES     
    8896 H6         312.9866  -214.2121  -187.2507 H6            1 RES     
    8897 H6         312.0242  -214.1201  -188.7449 H6            1 RES     
    8898 H6         314.4373  -213.7986  -189.1795 H6            1 RES     
    8899 H6         313.8029  -215.2180  -190.0568 H6            1 RES     
    8900 H6         314.8115  -216.7674  -188.4146 H6            1 RES     
    8901 H6         316.0239  -215.6651  -189.1435 H6            1 RES     
    8902 H6         314.7149  -215.3236  -186.3636 H6            1 RES     
    8903 H6         315.9541  -214.2191  -187.0610 H6            1 RES     
    8904 H6         316.8213  -215.8564  -185.3772 H6            1 RES     
    8905 H6         316.2719  -217.2240  -186.4118 H6            1 RES     
    8906 H6         317.9118  -216.4562  -188.2118 H6            1 RES     
    8907 H6         318.3455  -215.0530  -187.1681 H6            1 RES     
    8908 H6         319.2303  -216.6047  -185.4199 H6            1 RES     
    8909 H6         320.0639  -216.7647  -187.0068 H6            1 RES     
    8910 H6         317.9089  -218.6980  -185.9310 H6            1 RES     
    8911 H6         318.7238  -218.7992  -187.5453 H6            1 RES     
    8912 H6         319.6764  -218.9853  -186.0245 H6            1 RES     
    8913 H6         310.1658  -217.7864  -186.8325 H6            1 RES     
    8914 H6         309.3488  -219.1205  -187.5765 H6            1 RES     
    8915 H6         308.4782  -216.3421  -187.3211 H6            1 RES     
    8916 H6         308.7466  -216.6019  -189.0814 H6            1 RES     
    8917 H6         307.0106  -218.3802  -187.1883 H6            1 RES     
    8918 H6         307.4564  -218.6846  -188.8604 H6            1 RES     
    8919 H6         306.3095  -216.7483  -189.7101 H6            1 RES     
    8920 H6         305.3018  -218.0292  -189.0068 H6            1 RES     
    8921 H6         304.9610  -216.8006  -186.9656 H6            1 RES     
    8922 H6         305.9415  -215.3972  -187.5563 H6            1 RES     
    8923 H6         304.4492  -215.0972  -189.5031 H6            1 RES     
    8924 H6         303.4835  -216.5521  -189.0811 H6            1 RES     
    8925 H6         302.3412  -214.4392  -188.5141 H6            1 RES     
    8926 H6         303.6521  -214.0058  -187.3542 H6            1 RES     
    8927 H6         303.0700  -216.0869  -186.0094 H6            1 RES     
    8928 H6         301.6390  -215.0257  -186.2365 H6            1 RES     
    8929 H6         301.8165  -216.5097  -187.2425 H6            1 RES     
    8930 C0         310.1360  -220.5038  -192.2022 C0            1 RES     
    8931 C0         310.7433  -219.5373  -193.3172 C0            1 RES     
    8932 C0         310.3467  -220.1542  -194.7009 C0            1 RES     
    8933 C0         311.0477  -219.5404  -195.9297 C0            1 RES     
    8934 C0         310.6106  -220.1602  -197.2687 C0            1 RES     
    8935 C0         310.8683  -221.6698  -197.4225 C0            1 RES     
    8936 C0         312.3174  -222.1150  -197.1649 C0            1 RES     
    8937 C0         313.3442  -221.4116  -198.0700 C0            1 RES     
    8938 C0         314.7878  -221.8639  -197.7966 C0            1 RES     
    8939 C0         315.0357  -223.3356  -198.1730 C0            1 RES     
    8940 C0         316.5059  -223.7551  -198.0188 C0            1 RES     
    8941 C0         316.9913  -223.7315  -196.5693 C0            1 RES     
    8942 C0         310.6057  -217.9568  -193.3341 C0            1 RES     
    8943 C0         309.2399  -217.2519  -193.5700 C0            1 RES     
    8944 C0         308.6720  -216.6286  -192.2823 C0            1 RES     
    8945 C0         307.3072  -215.9686  -192.3895 C0            1 RES     
    8946 C0         307.2404  -214.6355  -193.1213 C0            1 RES     
    8947 C0         305.8071  -214.0941  -192.9437 C0            1 RES     
    8948 C0         305.5912  -212.6799  -193.4856 C0            1 RES     
    8949 C0         306.3582  -211.6273  -192.6838 C0            1 RES     
    8950 H6         309.2219  -220.9918  -192.6137 H6            1 RES     
    8951 H6         310.8356  -221.3699  -192.1827 H6            1 RES     
    8952 H6         311.8446  -219.6639  -193.2026 H6            1 RES     
    8953 H6         309.2476  -220.0614  -194.8380 H6            1 RES     
    8954 H6         310.5975  -221.2364  -194.6740 H6            1 RES     
    8955 H6         312.1476  -219.6280  -195.8068 H6            1 RES     
    8956 H6         310.7892  -218.4680  -196.0244 H6            1 RES     
    8957 H6         311.1425  -219.6197  -198.0807 H6            1 RES     
    8958 H6         309.5240  -219.9767  -197.4193 H6            1 RES     
    8959 H6         310.5747  -221.9616  -198.4546 H6            1 RES     
    8960 H6         310.2074  -222.2273  -196.7250 H6            1 RES     
    8961 H6         312.5797  -221.9295  -196.1014 H6            1 RES     
    8962 H6         312.3486  -223.2105  -197.3352 H6            1 RES     
    8963 H6         313.3084  -220.3199  -197.8725 H6            1 RES     
    8964 H6         313.0940  -221.5799  -199.1398 H6            1 RES     
    8965 H6         315.4613  -221.2302  -198.4138 H6            1 RES     
    8966 H6         315.0236  -221.6823  -196.7264 H6            1 RES     
    8967 H6         314.4077  -224.0146  -197.5603 H6            1 RES     
    8968 H6         314.7576  -223.4701  -199.2411 H6            1 RES     
    8969 H6         317.1524  -223.0978  -198.6400 H6            1 RES     
    8970 H6         316.6074  -224.7957  -198.3954 H6            1 RES     
    8971 H6         316.9645  -222.7049  -196.1514 H6            1 RES     
    8972 H6         316.3640  -224.4015  -195.9435 H6            1 RES     
    8973 H6         318.0415  -224.0895  -196.5288 H6            1 RES     
    8974 H6         311.2505  -217.6300  -194.1704 H6            1 RES     
    8975 H6         311.1750  -217.4607  -192.5258 H6            1 RES     
    8976 H6         309.4196  -216.3822  -194.2399 H6            1 RES     
    8977 H6         308.5285  -217.9276  -194.0864 H6            1 RES     
    8978 H6         309.4050  -215.9131  -191.8452 H6            1 RES     
    8979 H6         308.4882  -217.4064  -191.5495 H6            1 RES     
    8980 H6         306.5688  -216.6913  -192.7999 H6            1 RES     
    8981 H6         307.0322  -215.7213  -191.3510 H6            1 RES     
    8982 H6         307.9772  -213.9523  -192.6485 H6            1 RES     
    8983 H6         307.4888  -214.7545  -194.1965 H6            1 RES     
    8984 H6         305.1101  -214.7877  -193.4636 H6            1 RES     
    8985 H6         305.5287  -214.0844  -191.8646 H6            1 RES     
    8986 H6         304.5076  -212.4498  -193.3864 H6            1 RES     
    8987 H6         305.8668  -212.6357  -194.5579 H6            1 RES     
    8988 H6         307.4536  -211.7707  -192.7702 H6            1 RES     
    8989 H6         306.1086  -210.6183  -193.0712 H6            1 RES     
    8990 H6         306.0681  -211.6734  -191.6111 H6            1 RES     
    8991 C0         317.9108  -228.3744  -184.6701 C0            1 RES     
    8992 C1         316.4789  -227.8841  -184.9782 C1            1 RES     
    8993 C1         315.5359  -228.8090  -184.6608 C1            1 RES     
    8994 S2         313.9796  -228.3456  -185.0676 S2            1 RES     
    8995 C1         314.5199  -226.8788  -185.7365 C1            1 RES     
    8996 C1         315.9116  -226.7781  -185.6328 C1            1 RES     
    8997 C1         316.1798  -229.9648  -184.1686 C1            1 RES     
    8998 C1         317.5273  -229.7909  -184.2391 C1            1 RES     
    8999 C1         318.2270  -230.9440  -183.9045 C1            1 RES     
    9000 C1         317.3409  -231.9739  -183.5463 C1            1 RES     
    9001 S2         315.7203  -231.4791  -183.6564 S2            1 RES     
    9002 H3         316.4496  -225.9568  -186.0669 H3            1 RES     
    9003 H3         319.3065  -231.0348  -183.9235 H3            1 RES     
    9004 N4         317.8123  -235.1963  -181.6904 N4            1 RES     
    9005 C1         317.5076  -233.8913  -181.9516 C1            1 RES     
    9006 C1         317.7028  -233.3522  -183.2350 C1            1 RES     
    9007 C1         318.1935  -234.1938  -184.2349 C1            1 RES     
    9008 N4         318.3731  -233.8161  -185.5266 N4            1 RES     
    9009 S2         318.8971  -235.2161  -186.2317 S2            1 RES     
    9010 N4         318.9185  -236.3029  -184.9839 N4            1 RES     
    9011 C1         318.4837  -235.5502  -183.9432 C1            1 RES     
    9012 C1         318.2986  -236.0325  -182.6502 C1            1 RES     
    9013 H5         317.1190  -233.2652  -181.1531 H5            1 RES     
    9014 C0         318.7258  -227.7052  -183.5079 C0            1 RES     
    9015 C0         318.5409  -227.8016  -181.9464 C0            1 RES     
    9016 C0         319.5911  -226.8009  -181.3479 C0            1 RES     
    9017 C0         319.6915  -226.7350  -179.8189 C0            1 RES     
    9018 C0         320.7194  -225.6814  -179.3435 C0            1 RES     
    9019 C0         322.1837  -225.9311  -179.7670 C0            1 RES     
    9020 C0         322.7483  -227.3058  -179.3674 C0            1 RES     
    9021 C0         322.6798  -227.5686  -177.8525 C0            1 RES     
    9022 C0         323.1920  -228.9626  -177.4627 C0            1 RES     
    9023 C0         324.7007  -229.1421  -177.7017 C0            1 RES     
    9024 C0         325.2235  -230.4985  -177.2024 C0            1 RES     
    9025 C0         324.6523  -231.6866  -177.9772 C0            1 RES     
    9026 C0         317.1205  -227.6042  -181.3228 C0            1 RES     
    9027 C0         316.4188  -226.2169  -181.4482 C0            1 RES     
    9028 C0         315.0895  -226.3986  -182.1871 C0            1 RES     
    9029 C0         314.3856  -225.1509  -182.7132 C0            1 RES     
    9030 C0         313.5895  -224.3440  -181.6980 C0            1 RES     
    9031 C0         312.9289  -223.1675  -182.4469 C0            1 RES     
    9032 C0         311.9348  -222.3641  -181.6052 C0            1 RES     
    9033 C0         310.6786  -223.1689  -181.2655 C0            1 RES     
    9034 H6         318.7209  -226.6633  -183.7030 H6            1 RES     
    9035 H6         319.7673  -228.0675  -183.6615 H6            1 RES     
    9036 H6         318.8332  -228.8352  -181.6553 H6            1 RES     
    9037 H6         319.3632  -225.7730  -181.7056 H6            1 RES     
    9038 H6         320.5900  -227.0806  -181.7460 H6            1 RES     
    9039 H6         319.9388  -227.7356  -179.4096 H6            1 RES     
    9040 H6         318.7136  -226.4201  -179.4022 H6            1 RES     
    9041 H6         320.6711  -225.6275  -178.2362 H6            1 RES     
    9042 H6         320.4186  -224.6789  -179.7207 H6            1 RES     
    9043 H6         322.8146  -225.1350  -179.3125 H6            1 RES     
    9044 H6         322.2780  -225.8253  -180.8690 H6            1 RES     
    9045 H6         322.1907  -228.1011  -179.9055 H6            1 RES     
    9046 H6         323.8033  -227.3411  -179.7101 H6            1 RES     
    9047 H6         321.6196  -227.5276  -177.5296 H6            1 RES     
    9048 H6         323.2443  -226.7864  -177.2992 H6            1 RES     
    9049 H6         322.9949  -229.1007  -176.3772 H6            1 RES     
    9050 H6         322.6075  -229.7231  -178.0220 H6            1 RES     
    9051 H6         324.9479  -229.0382  -178.7786 H6            1 RES     
    9052 H6         325.2364  -228.3458  -177.1404 H6            1 RES     
    9053 H6         324.9965  -230.6148  -176.1201 H6            1 RES     
    9054 H6         326.3279  -230.5098  -177.3265 H6            1 RES     
    9055 H6         323.5536  -231.7623  -177.8495 H6            1 RES     
    9056 H6         324.8921  -231.5902  -179.0575 H6            1 RES     
    9057 H6         325.1046  -232.6257  -177.5955 H6            1 RES     
    9058 H6         317.1969  -227.8264  -180.2369 H6            1 RES     
    9059 H6         316.4639  -228.4223  -181.6889 H6            1 RES     
    9060 H6         316.2020  -225.7915  -180.4427 H6            1 RES     
    9061 H6         317.0747  -225.5057  -181.9902 H6            1 RES     
    9062 H6         314.3882  -227.0604  -181.6365 H6            1 RES     
    9063 H6         315.3748  -226.9085  -183.0825 H6            1 RES     
    9064 H6         315.1133  -224.5219  -183.2316 H6            1 RES     
    9065 H6         313.6540  -225.5024  -183.4760 H6            1 RES     
    9066 H6         312.8211  -225.0220  -181.2698 H6            1 RES     
    9067 H6         314.2391  -223.9646  -180.8811 H6            1 RES     
    9068 H6         313.7372  -222.4856  -182.7962 H6            1 RES     
    9069 H6         312.3872  -223.5346  -183.3482 H6            1 RES     
    9070 H6         311.6131  -221.4868  -182.2087 H6            1 RES     
    9071 H6         312.4243  -221.9938  -180.6800 H6            1 RES     
    9072 H6         310.9159  -224.0432  -180.6280 H6            1 RES     
    9073 H6         309.9626  -222.5238  -180.7169 H6            1 RES     
    9074 H6         310.1870  -223.5229  -182.1992 H6            1 RES     
    9075 C0         318.6752  -228.3062  -186.0509 C0            1 RES     
    9076 C0         319.8690  -227.3083  -186.4047 C0            1 RES     
    9077 C0         319.9211  -227.2175  -187.9672 C0            1 RES     
    9078 C0         321.1651  -226.5193  -188.5530 C0            1 RES     
    9079 C0         321.1630  -226.4315  -190.0894 C0            1 RES     
    9080 C0         321.1189  -227.7768  -190.8358 C0            1 RES     
    9081 C0         322.2129  -228.7814  -190.4375 C0            1 RES     
    9082 C0         323.6404  -228.2370  -190.6214 C0            1 RES     
    9083 C0         324.7217  -229.2511  -190.2142 C0            1 RES     
    9084 C0         324.7647  -230.4831  -191.1358 C0            1 RES     
    9085 C0         325.9237  -231.4374  -190.8084 C0            1 RES     
    9086 C0         325.7934  -232.0960  -189.4350 C0            1 RES     
    9087 C0         320.1029  -225.8868  -185.7402 C0            1 RES     
    9088 C0         319.1324  -224.6959  -185.9806 C0            1 RES     
    9089 C0         318.2582  -224.3947  -184.7501 C0            1 RES     
    9090 C0         317.2281  -223.2874  -184.9010 C0            1 RES     
    9091 C0         317.7509  -221.8583  -184.9391 C0            1 RES     
    9092 C0         316.5217  -220.9269  -184.9187 C0            1 RES     
    9093 C0         316.8549  -219.4388  -184.7975 C0            1 RES     
    9094 C0         317.4582  -219.0878  -183.4366 C0            1 RES     
    9095 H6         317.9125  -228.2507  -186.8622 H6            1 RES     
    9096 H6         319.1002  -229.3175  -186.2426 H6            1 RES     
    9097 H6         320.7791  -227.8608  -186.0753 H6            1 RES     
    9098 H6         319.0143  -226.6873  -188.3305 H6            1 RES     
    9099 H6         319.8947  -228.2536  -188.3681 H6            1 RES     
    9100 H6         322.0793  -227.0404  -188.1993 H6            1 RES     
    9101 H6         321.2091  -225.4654  -188.2164 H6            1 RES     
    9102 H6         322.0762  -225.8788  -190.3974 H6            1 RES     
    9103 H6         320.2927  -225.8228  -190.4198 H6            1 RES     
    9104 H6         321.1971  -227.5645  -191.9246 H6            1 RES     
    9105 H6         320.1317  -228.2575  -190.6669 H6            1 RES     
    9106 H6         322.0708  -229.0849  -189.3783 H6            1 RES     
    9107 H6         322.0648  -229.6803  -191.0701 H6            1 RES     
    9108 H6         323.7728  -227.3491  -189.9685 H6            1 RES     
    9109 H6         323.7996  -227.9208  -191.6750 H6            1 RES     
    9110 H6         325.7055  -228.7370  -190.2769 H6            1 RES     
    9111 H6         324.5525  -229.5507  -189.1581 H6            1 RES     
    9112 H6         323.8132  -231.0514  -191.0855 H6            1 RES     
    9113 H6         324.9057  -230.1282  -192.1801 H6            1 RES     
    9114 H6         326.8902  -230.8917  -190.8710 H6            1 RES     
    9115 H6         325.9315  -232.2433  -191.5736 H6            1 RES     
    9116 H6         325.8331  -231.3440  -188.6214 H6            1 RES     
    9117 H6         324.8395  -232.6614  -189.3692 H6            1 RES     
    9118 H6         326.6358  -232.8041  -189.2869 H6            1 RES     
    9119 H6         321.0791  -225.5515  -186.1360 H6            1 RES     
    9120 H6         320.4038  -225.9462  -184.6774 H6            1 RES     
    9121 H6         319.7483  -223.7789  -186.1110 H6            1 RES     
    9122 H6         318.5502  -224.8405  -186.9132 H6            1 RES     
    9123 H6         318.8996  -224.1962  -183.8615 H6            1 RES     
    9124 H6         317.6343  -225.2526  -184.5256 H6            1 RES     
    9125 H6         316.5699  -223.4993  -185.7714 H6            1 RES     
    9126 H6         316.6299  -223.3321  -183.9760 H6            1 RES     
    9127 H6         318.3746  -221.7015  -184.0336 H6            1 RES     
    9128 H6         318.3682  -221.6804  -185.8442 H6            1 RES     
    9129 H6         315.9498  -221.0910  -185.8585 H6            1 RES     
    9130 H6         315.8519  -221.1897  -184.0677 H6            1 RES     
    9131 H6         315.8996  -218.8774  -184.8931 H6            1 RES     
    9132 H6         317.5315  -219.1309  -185.6191 H6            1 RES     
    9133 H6         318.4382  -219.5831  -183.2878 H6            1 RES     
    9134 H6         317.6110  -217.9907  -183.3758 H6            1 RES     
    9135 H6         316.7682  -219.3923  -182.6193 H6            1 RES     
    9136 C0         320.9167  -240.5579  -181.1521 C0            1 RES     
    9137 C1         319.8679  -239.5032  -181.5685 C1            1 RES     
    9138 C1         318.6967  -240.0665  -181.9637 C1            1 RES     
    9139 S2         317.5696  -238.9554  -182.5091 S2            1 RES     
    9140 C1         318.6394  -237.6549  -182.2739 C1            1 RES     
    9141 C1         319.8634  -238.1136  -181.7749 C1            1 RES     
    9142 C1         318.8223  -241.4710  -181.8982 C1            1 RES     
    9143 C1         320.0914  -241.7901  -181.5261 C1            1 RES     
    9144 C1         320.3293  -243.1582  -181.5791 C1            1 RES     
    9145 C1         319.1696  -243.8471  -181.9722 C1            1 RES     
    9146 S2         317.8756  -242.7879  -182.2673 S2            1 RES     
    9147 H3         320.6960  -237.4512  -181.6322 H3            1 RES     
    9148 H3         321.2803  -243.6255  -181.3532 H3            1 RES     
    9149 N4         318.1482  -247.4452  -181.7245 N4            1 RES     
    9150 C1         318.2678  -246.1159  -181.4366 C1            1 RES     
    9151 C1         319.0651  -245.2780  -182.2354 C1            1 RES     
    9152 C1         319.7090  -245.8390  -183.3397 C1            1 RES     
    9153 N4         320.4599  -245.1319  -184.2227 N4            1 RES     
    9154 S2         320.8941  -246.2895  -185.3196 S2            1 RES     
    9155 N4         320.1829  -247.6676  -184.7421 N4            1 RES     
    9156 C1         319.5531  -247.2180  -183.6286 C1            1 RES     
    9157 C1         318.7737  -248.0138  -182.7933 C1            1 RES     
    9158 H5         317.7463  -245.7088  -180.5747 H5            1 RES     
    9159 C0         321.3365  -240.6803  -179.6449 C0            1 RES     
    9160 C0         320.5374  -241.2356  -178.4060 C0            1 RES     
    9161 C0         321.4618  -240.9630  -177.1677 C0            1 RES     
    9162 C0         320.9661  -241.4715  -175.8083 C0            1 RES     
    9163 C0         321.9307  -241.1023  -174.6567 C0            1 RES     
    9164 C0         323.3487  -241.7080  -174.7466 C0            1 RES     
    9165 C0         323.3914  -243.2405  -174.8797 C0            1 RES     
    9166 C0         322.6776  -243.9662  -173.7254 C0            1 RES     
    9167 C0         322.6730  -245.4928  -173.8895 C0            1 RES     
    9168 C0         324.0739  -246.1180  -173.7786 C0            1 RES     
    9169 C0         324.0442  -247.6539  -173.8294 C0            1 RES     
    9170 C0         323.5750  -248.2030  -175.1773 C0            1 RES     
    9171 C0         319.0685  -240.7604  -178.1579 C0            1 RES     
    9172 C0         318.7986  -239.2616  -177.8213 C0            1 RES     
    9173 C0         317.8615  -238.6760  -178.8819 C0            1 RES     
    9174 C0         317.7160  -237.1585  -178.9506 C0            1 RES     
    9175 C0         316.7858  -236.5207  -177.9291 C0            1 RES     
    9176 C0         316.7506  -235.0035  -178.2084 C0            1 RES     
    9177 C0         315.7109  -234.2362  -177.3884 C0            1 RES     
    9178 C0         314.2778  -234.5887  -177.7925 C0            1 RES     
    9179 H6         321.6396  -239.7110  -179.3411 H6            1 RES     
    9180 H6         322.2463  -241.3217  -179.6665 H6            1 RES     
    9181 H6         320.4551  -242.3363  -178.5489 H6            1 RES     
    9182 H6         321.6264  -239.8678  -177.0674 H6            1 RES     
    9183 H6         322.4478  -241.4329  -177.3715 H6            1 RES     
    9184 H6         320.8046  -242.5679  -175.8473 H6            1 RES     
    9185 H6         319.9993  -240.9852  -175.5672 H6            1 RES     
    9186 H6         321.4649  -241.4209  -173.7013 H6            1 RES     
    9187 H6         322.0322  -239.9956  -174.6036 H6            1 RES     
    9188 H6         323.9100  -241.4085  -173.8335 H6            1 RES     
    9189 H6         323.8887  -241.2701  -175.6132 H6            1 RES     
    9190 H6         322.9285  -243.5372  -175.8445 H6            1 RES     
    9191 H6         324.4598  -243.5390  -174.9110 H6            1 RES     
    9192 H6         321.6135  -243.6540  -173.7098 H6            1 RES     
    9193 H6         323.1377  -243.6886  -172.7518 H6            1 RES     
    9194 H6         322.0406  -245.9153  -173.0784 H6            1 RES     
    9195 H6         322.2022  -245.7423  -174.8635 H6            1 RES     
    9196 H6         324.7401  -245.7465  -174.5846 H6            1 RES     
    9197 H6         324.5082  -245.8205  -172.7993 H6            1 RES     
    9198 H6         323.3911  -248.0454  -173.0192 H6            1 RES     
    9199 H6         325.0763  -248.0253  -173.6506 H6            1 RES     
    9200 H6         322.5274  -247.9101  -175.3909 H6            1 RES     
    9201 H6         324.2344  -247.8341  -175.9915 H6            1 RES     
    9202 H6         323.6209  -249.3120  -175.1581 H6            1 RES     
    9203 H6         318.6613  -241.3558  -177.3128 H6            1 RES     
    9204 H6         318.4447  -241.1000  -179.0123 H6            1 RES     
    9205 H6         318.3048  -239.1623  -176.8286 H6            1 RES     
    9206 H6         319.7544  -238.7001  -177.7893 H6            1 RES     
    9207 H6         316.8728  -239.1811  -178.8960 H6            1 RES     
    9208 H6         318.3547  -238.9115  -179.8010 H6            1 RES     
    9209 H6         318.7085  -236.7024  -178.9169 H6            1 RES     
    9210 H6         317.2844  -236.9303  -179.9517 H6            1 RES     
    9211 H6         315.7815  -236.9729  -178.0724 H6            1 RES     
    9212 H6         317.1292  -236.7135  -176.8908 H6            1 RES     
    9213 H6         317.7603  -234.5898  -177.9856 H6            1 RES     
    9214 H6         316.5392  -234.8105  -179.2848 H6            1 RES     
    9215 H6         315.8548  -233.1519  -177.5902 H6            1 RES     
    9216 H6         315.8668  -234.4156  -176.3038 H6            1 RES     
    9217 H6         314.0458  -235.6514  -177.5824 H6            1 RES     
    9218 H6         313.5662  -233.9589  -177.2209 H6            1 RES     
    9219 H6         314.1269  -234.3916  -178.8774 H6            1 RES     
    9220 C0         322.1560  -240.3016  -182.0976 C0            1 RES     
    9221 C0         323.5817  -239.7546  -181.6345 C0            1 RES     
    9222 C0         324.2614  -239.1550  -182.9115 C0            1 RES     
    9223 C0         325.7565  -238.8051  -182.7686 C0            1 RES     
    9224 C0         326.3769  -238.1973  -184.0390 C0            1 RES     
    9225 C0         326.3323  -239.0852  -185.2954 C0            1 RES     
    9226 C0         326.9301  -240.4915  -185.1234 C0            1 RES     
    9227 C0         328.3973  -240.4806  -184.6593 C0            1 RES     
    9228 C0         328.9781  -241.8936  -184.4873 C0            1 RES     
    9229 C0         329.1052  -242.6549  -185.8190 C0            1 RES     
    9230 C0         329.7999  -244.0171  -185.6676 C0            1 RES     
    9231 C0         328.9988  -245.0132  -184.8291 C0            1 RES     
    9232 C0         323.8447  -238.8421  -180.3636 C0            1 RES     
    9233 C0         323.3365  -237.3747  -180.2844 C0            1 RES     
    9234 C0         322.1399  -237.2196  -179.3286 C0            1 RES     
    9235 C0         321.5249  -235.8336  -179.2265 C0            1 RES     
    9236 C0         322.3232  -234.7775  -178.4753 C0            1 RES     
    9237 C0         321.4242  -233.5296  -178.3591 C0            1 RES     
    9238 C0         322.0038  -232.4081  -177.4950 C0            1 RES     
    9239 C0         322.0862  -232.7964  -176.0180 C0            1 RES     
    9240 H6         321.8058  -239.6937  -182.9641 H6            1 RES     
    9241 H6         322.3866  -241.2646  -182.6070 H6            1 RES     
    9242 H6         324.1425  -240.6792  -181.3649 H6            1 RES     
    9243 H6         323.7119  -238.2392  -183.2192 H6            1 RES     
    9244 H6         324.1656  -239.9017  -183.7289 H6            1 RES     
    9245 H6         326.3184  -239.7125  -182.4630 H6            1 RES     
    9246 H6         325.8972  -238.0272  -181.9933 H6            1 RES     
    9247 H6         327.4354  -237.9478  -183.8119 H6            1 RES     
    9248 H6         325.8644  -237.2384  -184.2735 H6            1 RES     
    9249 H6         326.8764  -238.5540  -186.1068 H6            1 RES     
    9250 H6         325.2783  -239.1971  -185.6278 H6            1 RES     
    9251 H6         326.3204  -241.0679  -184.3951 H6            1 RES     
    9252 H6         326.8470  -240.9951  -186.1081 H6            1 RES     
    9253 H6         328.4560  -239.9879  -183.6663 H6            1 RES     
    9254 H6         329.0228  -239.9015  -185.3725 H6            1 RES     
    9255 H6         329.9949  -241.7882  -184.0501 H6            1 RES     
    9256 H6         328.3463  -242.4555  -183.7671 H6            1 RES     
    9257 H6         328.1101  -242.8147  -186.2829 H6            1 RES     
    9258 H6         329.7194  -242.0389  -186.5114 H6            1 RES     
    9259 H6         330.8082  -243.8782  -185.2205 H6            1 RES     
    9260 H6         329.9286  -244.4516  -186.6824 H6            1 RES     
    9261 H6         328.8816  -244.6594  -183.7850 H6            1 RES     
    9262 H6         327.9961  -245.1748  -185.2791 H6            1 RES     
    9263 H6         329.5358  -245.9847  -184.8022 H6            1 RES     
    9264 H6         324.9458  -238.7733  -180.2932 H6            1 RES     
    9265 H6         323.6831  -239.3712  -179.4057 H6            1 RES     
    9266 H6         324.1407  -236.7631  -179.8191 H6            1 RES     
    9267 H6         323.1507  -236.9638  -181.2973 H6            1 RES     
    9268 H6         322.4079  -237.5904  -178.3132 H6            1 RES     
    9269 H6         321.3048  -237.8098  -179.6891 H6            1 RES     
    9270 H6         321.2319  -235.4745  -180.2370 H6            1 RES     
    9271 H6         320.6180  -235.9729  -178.6152 H6            1 RES     
    9272 H6         322.5594  -235.1835  -177.4690 H6            1 RES     
    9273 H6         323.2688  -234.5370  -179.0043 H6            1 RES     
    9274 H6         321.2461  -233.1368  -179.3843 H6            1 RES     
    9275 H6         320.4341  -233.8054  -177.9282 H6            1 RES     
    9276 H6         321.3129  -231.5400  -177.5732 H6            1 RES     
    9277 H6         322.9984  -232.1058  -177.8785 H6            1 RES     
    9278 H6         322.7929  -233.6348  -175.8581 H6            1 RES     
    9279 H6         322.4418  -231.9257  -175.4298 H6            1 RES     
    9280 H6         321.0820  -233.0892  -175.6402 H6            1 RES     
    9281 C0         319.5205  -253.4003  -182.8769 C0            1 RES     
    9282 C1         318.9812  -251.9610  -183.0298 C1            1 RES     
    9283 C1         317.9660  -251.8818  -183.9288 C1            1 RES     
    9284 S2         317.4200  -250.3204  -184.1867 S2            1 RES     
    9285 C1         318.5708  -249.6703  -183.1172 C1            1 RES     
    9286 C1         319.3661  -250.6875  -182.5783 C1            1 RES     
    9287 C1         317.7412  -253.1637  -184.4754 C1            1 RES     
    9288 C1         318.6575  -254.0329  -183.9697 C1            1 RES     
    9289 C1         318.5875  -255.2837  -184.5713 C1            1 RES     
    9290 C1         317.5538  -255.3180  -185.5224 C1            1 RES     
    9291 S2         316.7491  -253.8269  -185.6342 S2            1 RES     
    9292 H3         320.2001  -250.4697  -181.9385 H3            1 RES     
    9293 H3         319.2443  -256.1139  -184.3407 H3            1 RES     
    9294 N4         315.7477  -258.1376  -187.2071 N4            1 RES     
    9295 C1         316.0360  -257.1327  -186.3289 C1            1 RES     
    9296 C1         317.2468  -256.4248  -186.4215 C1            1 RES     
    9297 C1         318.1307  -256.7635  -187.4476 C1            1 RES     
    9298 N4         319.3041  -256.1224  -187.6833 N4            1 RES     
    9299 S2         319.8657  -256.9023  -189.0280 S2            1 RES     
    9300 N4         318.6988  -258.0318  -189.3459 N4            1 RES     
    9301 C1         317.7993  -257.7977  -188.3586 C1            1 RES     
    9302 C1         316.5994  -258.4885  -188.2112 C1            1 RES     
    9303 H5         315.3224  -256.8879  -185.5469 H5            1 RES     
    9304 C0         319.2767  -254.1808  -181.5375 C0            1 RES     
    9305 C0         317.9542  -254.7962  -180.9425 C0            1 RES     
    9306 C0         318.3540  -255.3275  -179.5211 C0            1 RES     
    9307 C0         317.2654  -256.0552  -178.7225 C0            1 RES     
    9308 C0         317.7564  -256.4878  -177.3209 C0            1 RES     
    9309 C0         318.9234  -257.4995  -177.2995 C0            1 RES     
    9310 C0         318.6742  -258.7929  -178.0951 C0            1 RES     
    9311 C0         317.4232  -259.5574  -177.6268 C0            1 RES     
    9312 C0         317.1453  -260.8178  -178.4585 C0            1 RES     
    9313 C0         318.2139  -261.9094  -178.2793 C0            1 RES     
    9314 C0         317.8670  -263.2077  -179.0253 C0            1 RES     
    9315 C0         317.8554  -263.0442  -180.5456 C0            1 RES     
    9316 C0         316.6508  -253.9333  -180.9013 C0            1 RES     
    9317 C0         316.6099  -252.6561  -180.0071 C0            1 RES     
    9318 C0         316.3192  -251.4402  -180.8921 C0            1 RES     
    9319 C0         316.5525  -250.0522  -180.3022 C0            1 RES     
    9320 C0         315.4625  -249.5137  -179.3870 C0            1 RES     
    9321 C0         315.8768  -248.0936  -178.9479 C0            1 RES     
    9322 C0         314.7969  -247.3334  -178.1746 C0            1 RES     
    9323 C0         313.5980  -246.9731  -179.0545 C0            1 RES     
    9324 H6         319.6428  -253.5596  -180.7605 H6            1 RES     
    9325 H6         319.9553  -255.0608  -181.6074 H6            1 RES     
    9326 H6         317.6929  -255.6674  -181.5837 H6            1 RES     
    9327 H6         318.7042  -254.4764  -178.8969 H6            1 RES     
    9328 H6         319.2100  -256.0242  -179.6487 H6            1 RES     
    9329 H6         316.8936  -256.9297  -179.2941 H6            1 RES     
    9330 H6         316.4155  -255.3643  -178.5506 H6            1 RES     
    9331 H6         316.8952  -256.9227  -176.7728 H6            1 RES     
    9332 H6         318.0714  -255.5873  -176.7483 H6            1 RES     
    9333 H6         319.1325  -257.7621  -176.2385 H6            1 RES     
    9334 H6         319.8425  -257.0194  -177.6984 H6            1 RES     
    9335 H6         318.5738  -258.5461  -179.1731 H6            1 RES     
    9336 H6         319.5742  -259.4314  -177.9765 H6            1 RES     
    9337 H6         316.5363  -258.9033  -177.7514 H6            1 RES     
    9338 H6         317.5135  -259.8228  -176.5507 H6            1 RES     
    9339 H6         316.1689  -261.2314  -178.1242 H6            1 RES     
    9340 H6         317.0519  -260.5240  -179.5251 H6            1 RES     
    9341 H6         319.2072  -261.5539  -178.6235 H6            1 RES     
    9342 H6         318.2833  -262.1501  -177.1961 H6            1 RES     
    9343 H6         316.8793  -263.5868  -178.6832 H6            1 RES     
    9344 H6         318.6359  -263.9685  -178.7702 H6            1 RES     
    9345 H6         317.0689  -262.3334  -180.8701 H6            1 RES     
    9346 H6         318.8453  -262.6855  -180.8998 H6            1 RES     
    9347 H6         317.6432  -264.0257  -181.0190 H6            1 RES     
    9348 H6         315.8238  -254.5907  -180.5572 H6            1 RES     
    9349 H6         316.3539  -253.7027  -181.9469 H6            1 RES     
    9350 H6         315.8015  -252.7327  -179.2457 H6            1 RES     
    9351 H6         317.5749  -252.5322  -179.4751 H6            1 RES     
    9352 H6         315.3302  -251.5094  -181.3920 H6            1 RES     
    9353 H6         317.0679  -251.5065  -181.6526 H6            1 RES     
    9354 H6         317.5263  -250.0335  -179.8068 H6            1 RES     
    9355 H6         316.6105  -249.3509  -181.1655 H6            1 RES     
    9356 H6         314.5221  -249.4869  -179.9773 H6            1 RES     
    9357 H6         315.3190  -250.1650  -178.4992 H6            1 RES     
    9358 H6         316.7825  -248.1831  -178.3060 H6            1 RES     
    9359 H6         316.1533  -247.4772  -179.8336 H6            1 RES     
    9360 H6         315.2448  -246.3797  -177.8184 H6            1 RES     
    9361 H6         314.4708  -247.9205  -177.2905 H6            1 RES     
    9362 H6         313.0730  -247.8787  -179.4171 H6            1 RES     
    9363 H6         312.8781  -246.3660  -178.4690 H6            1 RES     
    9364 H6         313.9327  -246.3725  -179.9297 H6            1 RES     
    9365 C0         321.0546  -253.3060  -183.2417 C0            1 RES     
    9366 C0         322.2668  -253.5158  -182.2255 C0            1 RES     
    9367 C0         323.5076  -252.8054  -182.8644 C0            1 RES     
    9368 C0         324.8637  -253.1002  -182.1920 C0            1 RES     
    9369 C0         326.0506  -252.3632  -182.8370 C0            1 RES     
    9370 C0         326.3071  -252.6795  -184.3213 C0            1 RES     
    9371 C0         326.4617  -254.1728  -184.6542 C0            1 RES     
    9372 C0         327.5918  -254.8614  -183.8687 C0            1 RES     
    9373 C0         327.7298  -256.3542  -184.2090 C0            1 RES     
    9374 C0         328.1970  -256.5981  -185.6552 C0            1 RES     
    9375 C0         328.4561  -258.0817  -185.9602 C0            1 RES     
    9376 C0         327.1912  -258.9386  -185.9063 C0            1 RES     
    9377 C0         322.2051  -253.2633  -180.6604 C0            1 RES     
    9378 C0         322.0454  -251.8369  -180.0623 C0            1 RES     
    9379 C0         320.6366  -251.5951  -179.4914 C0            1 RES     
    9380 C0         320.3545  -250.2078  -178.9387 C0            1 RES     
    9381 C0         321.0064  -249.8476  -177.6112 C0            1 RES     
    9382 C0         320.4348  -248.4804  -177.1834 C0            1 RES     
    9383 C0         320.8616  -248.0227  -175.7875 C0            1 RES     
    9384 C0         320.2696  -248.8991  -174.6826 C0            1 RES     
    9385 H6         321.2166  -252.3529  -183.7971 H6            1 RES     
    9386 H6         321.2469  -254.0462  -184.0511 H6            1 RES     
    9387 H6         322.4569  -254.6132  -182.2669 H6            1 RES     
    9388 H6         323.3406  -251.7066  -182.8564 H6            1 RES     
    9389 H6         323.5773  -253.1327  -183.9240 H6            1 RES     
    9390 H6         325.0444  -254.1956  -182.1947 H6            1 RES     
    9391 H6         324.8574  -252.7478  -181.1423 H6            1 RES     
    9392 H6         326.9618  -252.6141  -182.2529 H6            1 RES     
    9393 H6         325.8976  -251.2661  -182.7376 H6            1 RES     
    9394 H6         327.2289  -252.1394  -184.6299 H6            1 RES     
    9395 H6         325.4718  -252.2751  -184.9319 H6            1 RES     
    9396 H6         325.5040  -254.6992  -184.4541 H6            1 RES     
    9397 H6         326.6623  -254.2369  -185.7431 H6            1 RES     
    9398 H6         327.3638  -254.8006  -182.7841 H6            1 RES     
    9399 H6         328.5584  -254.3437  -184.0506 H6            1 RES     
    9400 H6         328.4893  -256.7869  -183.5220 H6            1 RES     
    9401 H6         326.7587  -256.8572  -184.0151 H6            1 RES     
    9402 H6         327.4553  -256.2111  -186.3839 H6            1 RES     
    9403 H6         329.1536  -256.0515  -185.8056 H6            1 RES     
    9404 H6         329.2116  -258.4856  -185.2517 H6            1 RES     
    9405 H6         328.8729  -258.1532  -186.9879 H6            1 RES     
    9406 H6         326.7553  -258.9509  -184.8870 H6            1 RES     
    9407 H6         326.4369  -258.5552  -186.6260 H6            1 RES     
    9408 H6         327.4449  -259.9837  -186.1820 H6            1 RES     
    9409 H6         323.1757  -253.6316  -180.2804 H6            1 RES     
    9410 H6         321.5678  -253.9924  -180.1257 H6            1 RES     
    9411 H6         322.7163  -251.7641  -179.1780 H6            1 RES     
    9412 H6         322.3680  -251.0637  -180.7886 H6            1 RES     
    9413 H6         320.3952  -252.3646  -178.7234 H6            1 RES     
    9414 H6         319.9018  -251.6743  -180.2848 H6            1 RES     
    9415 H6         320.5690  -249.4408  -179.7145 H6            1 RES     
    9416 H6         319.2743  -250.2072  -178.7186 H6            1 RES     
    9417 H6         320.7325  -250.6329  -176.8752 H6            1 RES     
    9418 H6         322.1115  -249.8034  -177.7052 H6            1 RES     
    9419 H6         320.7650  -247.7214  -177.9263 H6            1 RES     
    9420 H6         319.3207  -248.5050  -177.2007 H6            1 RES     
    9421 H6         320.4678  -246.9928  -175.6426 H6            1 RES     
    9422 H6         321.9670  -247.9934  -175.7167 H6            1 RES     
    9423 H6         320.6520  -249.9375  -174.7402 H6            1 RES     
    9424 H6         320.5491  -248.4806  -173.6941 H6            1 RES     
    9425 H6         319.1600  -248.9147  -174.7565 H6            1 RES     
    9426 C0         316.1055  -263.3862  -190.5234 C0            1 RES     
    9427 C1         316.0030  -261.8924  -190.1441 C1            1 RES     
    9428 C1         315.4669  -261.1412  -191.1409 C1            1 RES     
    9429 S2         315.4266  -259.5033  -190.7975 S2            1 RES     
    9430 C1         316.1784  -259.7331  -189.2899 C1            1 RES     
    9431 C1         316.4515  -261.0895  -189.0821 C1            1 RES     
    9432 C1         315.1967  -261.9773  -192.2457 C1            1 RES     
    9433 C1         315.6237  -263.2387  -191.9675 C1            1 RES     
    9434 C1         315.5202  -264.0855  -193.0645 C1            1 RES     
    9435 C1         314.9630  -263.4076  -194.1619 C1            1 RES     
    9436 S2         314.6189  -261.7861  -193.7937 S2            1 RES     
    9437 H3         316.9933  -261.4280  -188.2195 H3            1 RES     
    9438 H3         315.8322  -265.1231  -193.0712 H3            1 RES     
    9439 N4         313.3869  -264.5991  -197.3473 N4            1 RES     
    9440 C1         313.5224  -264.1403  -196.0685 C1            1 RES     
    9441 C1         314.7965  -263.9403  -195.5095 C1            1 RES     
    9442 C1         315.9131  -264.2020  -196.3054 C1            1 RES     
    9443 N4         317.1952  -263.9966  -195.9085 N4            1 RES     
    9444 S2         318.0514  -264.4111  -197.2601 S2            1 RES     
    9445 N4         316.8842  -264.8494  -198.3482 N4            1 RES     
    9446 C1         315.7456  -264.6590  -197.6367 C1            1 RES     
    9447 C1         314.4635  -264.8671  -198.1384 C1            1 RES     
    9448 H5         312.6327  -263.9378  -195.4784 H5            1 RES     
    9449 C0         315.1894  -264.4343  -189.7989 C0            1 RES     
    9450 C0         313.6389  -264.6871  -189.9171 C0            1 RES     
    9451 C0         313.3204  -265.7839  -188.8410 C0            1 RES     
    9452 C0         311.8741  -266.2899  -188.7752 C0            1 RES     
    9453 C0         311.6666  -267.3281  -187.6474 C0            1 RES     
    9454 C0         312.4758  -268.6370  -187.7807 C0            1 RES     
    9455 C0         312.2790  -269.3879  -189.1094 C0            1 RES     
    9456 C0         310.8091  -269.7520  -189.3844 C0            1 RES     
    9457 C0         310.6081  -270.4513  -190.7364 C0            1 RES     
    9458 C0         311.2499  -271.8478  -190.7972 C0            1 RES     
    9459 C0         310.9453  -272.5843  -192.1114 C0            1 RES     
    9460 C0         311.5677  -271.9131  -193.3363 C0            1 RES     
    9461 C0         312.6504  -263.4784  -189.8336 C0            1 RES     
    9462 C0         312.5460  -262.6693  -188.5043 C0            1 RES     
    9463 C0         312.9032  -261.2064  -188.7847 C0            1 RES     
    9464 C0         313.1874  -260.2969  -187.5928 C0            1 RES     
    9465 C0         311.9746  -259.7488  -186.8551 C0            1 RES     
    9466 C0         312.4869  -258.8256  -185.7297 C0            1 RES     
    9467 C0         311.3877  -258.0407  -185.0100 C0            1 RES     
    9468 C0         310.7425  -256.9860  -185.9114 C0            1 RES     
    9469 H6         315.3490  -264.3004  -188.7595 H6            1 RES     
    9470 H6         315.6277  -265.4189  -190.0785 H6            1 RES     
    9471 H6         313.4643  -265.1223  -190.9264 H6            1 RES     
    9472 H6         313.5767  -265.3929  -187.8321 H6            1 RES     
    9473 H6         313.9803  -266.6553  -189.0404 H6            1 RES     
    9474 H6         311.5727  -266.7115  -189.7556 H6            1 RES     
    9475 H6         311.2009  -265.4411  -188.5391 H6            1 RES     
    9476 H6         310.5863  -267.5778  -187.6030 H6            1 RES     
    9477 H6         311.9226  -266.8636  -186.6694 H6            1 RES     
    9478 H6         312.1880  -269.3073  -186.9403 H6            1 RES     
    9479 H6         313.5592  -268.4211  -187.6624 H6            1 RES     
    9480 H6         312.6670  -268.7652  -189.9429 H6            1 RES     
    9481 H6         312.8944  -270.3102  -189.0611 H6            1 RES     
    9482 H6         310.2112  -268.8189  -189.4273 H6            1 RES     
    9483 H6         310.4086  -270.3864  -188.5635 H6            1 RES     
    9484 H6         309.5136  -270.5665  -190.8948 H6            1 RES     
    9485 H6         311.0083  -269.7945  -191.5371 H6            1 RES     
    9486 H6         312.3504  -271.7856  -190.6690 H6            1 RES     
    9487 H6         310.8335  -272.4557  -189.9645 H6            1 RES     
    9488 H6         309.8453  -272.6682  -192.2504 H6            1 RES     
    9489 H6         311.3631  -273.6114  -192.0364 H6            1 RES     
    9490 H6         311.1503  -270.8988  -193.4976 H6            1 RES     
    9491 H6         312.6697  -271.8435  -193.2162 H6            1 RES     
    9492 H6         311.3465  -272.5195  -194.2395 H6            1 RES     
    9493 H6         311.6315  -263.8623  -190.0546 H6            1 RES     
    9494 H6         312.8467  -262.8089  -190.6983 H6            1 RES     
    9495 H6         311.5086  -262.7025  -188.1020 H6            1 RES     
    9496 H6         313.2262  -263.0998  -187.7416 H6            1 RES     
    9497 H6         312.2010  -260.7311  -189.5017 H6            1 RES     
    9498 H6         313.8553  -261.2750  -189.2666 H6            1 RES     
    9499 H6         313.8666  -260.8087  -186.9066 H6            1 RES     
    9500 H6         313.7334  -259.4138  -187.9961 H6            1 RES     
    9501 H6         311.3726  -259.1770  -187.5928 H6            1 RES     
    9502 H6         311.3538  -260.5658  -186.4307 H6            1 RES     
    9503 H6         313.0236  -259.4567  -184.9854 H6            1 RES     
    9504 H6         313.2177  -258.0882  -186.1331 H6            1 RES     
    9505 H6         311.8591  -257.5040  -184.1573 H6            1 RES     
    9506 H6         310.6196  -258.7340  -184.6075 H6            1 RES     
    9507 H6         310.2155  -257.4506  -186.7680 H6            1 RES     
    9508 H6         310.0046  -256.4002  -185.3266 H6            1 RES     
    9509 H6         311.5178  -256.2871  -186.2979 H6            1 RES     
    9510 C0         317.6391  -263.7406  -190.3892 C0            1 RES     
    9511 C0         318.2760  -264.7174  -189.3000 C0            1 RES     
    9512 C0         319.7918  -264.3373  -189.1976 C0            1 RES     
    9513 C0         320.6732  -265.3213  -188.4021 C0            1 RES     
    9514 C0         322.1493  -264.8965  -188.3071 C0            1 RES     
    9515 C0         322.8906  -264.7505  -189.6480 C0            1 RES     
    9516 C0         322.8283  -265.9821  -190.5668 C0            1 RES     
    9517 C0         323.3764  -267.2625  -189.9124 C0            1 RES     
    9518 C0         323.3024  -268.4849  -190.8416 C0            1 RES     
    9519 C0         324.2329  -268.3667  -192.0619 C0            1 RES     
    9520 C0         324.2552  -269.6378  -192.9251 C0            1 RES     
    9521 C0         322.9150  -269.9333  -193.5987 C0            1 RES     
    9522 C0         317.6628  -265.0178  -187.8680 C0            1 RES     
    9523 C0         317.6016  -263.9339  -186.7547 C0            1 RES     
    9524 C0         316.1734  -263.4062  -186.5284 C0            1 RES     
    9525 C0         316.0122  -262.2956  -185.5036 C0            1 RES     
    9526 C0         316.1530  -262.6823  -184.0381 C0            1 RES     
    9527 C0         315.7777  -261.4397  -183.2049 C0            1 RES     
    9528 C0         315.7125  -261.6834  -181.6961 C0            1 RES     
    9529 C0         314.5563  -262.6055  -181.3061 C0            1 RES     
    9530 H6         318.2128  -262.7847  -190.3890 H6            1 RES     
    9531 H6         317.9644  -264.1707  -191.3636 H6            1 RES     
    9532 H6         318.2188  -265.7207  -189.7819 H6            1 RES     
    9533 H6         319.8830  -263.3297  -188.7375 H6            1 RES     
    9534 H6         320.1973  -264.2792  -190.2306 H6            1 RES     
    9535 H6         320.5929  -266.3329  -188.8525 H6            1 RES     
    9536 H6         320.3339  -265.3776  -187.3497 H6            1 RES     
    9537 H6         322.6779  -265.6490  -187.6837 H6            1 RES     
    9538 H6         322.2167  -263.9271  -187.7661 H6            1 RES     
    9539 H6         323.9542  -264.5150  -189.4249 H6            1 RES     
    9540 H6         322.4740  -263.8840  -190.2046 H6            1 RES     
    9541 H6         321.7782  -266.1550  -190.8857 H6            1 RES     
    9542 H6         323.4205  -265.7344  -191.4712 H6            1 RES     
    9543 H6         322.7608  -267.5014  -189.0201 H6            1 RES     
    9544 H6         324.4254  -267.1065  -189.5795 H6            1 RES     
    9545 H6         323.6150  -269.3745  -190.2525 H6            1 RES     
    9546 H6         322.2479  -268.6307  -191.1586 H6            1 RES     
    9547 H6         323.9425  -267.5087  -192.7025 H6            1 RES     
    9548 H6         325.2670  -268.1931  -191.6919 H6            1 RES     
    9549 H6         324.5621  -270.5085  -192.3058 H6            1 RES     
    9550 H6         325.0146  -269.4969  -193.7241 H6            1 RES     
    9551 H6         322.1231  -270.1367  -192.8499 H6            1 RES     
    9552 H6         322.6089  -269.0769  -194.2366 H6            1 RES     
    9553 H6         323.0181  -270.8337  -194.2400 H6            1 RES     
    9554 H6         318.2985  -265.8229  -187.4560 H6            1 RES     
    9555 H6         316.7225  -265.5990  -187.9092 H6            1 RES     
    9556 H6         317.8696  -264.4225  -185.7921 H6            1 RES     
    9557 H6         318.3459  -263.1330  -186.9393 H6            1 RES     
    9558 H6         315.4861  -264.2481  -186.2852 H6            1 RES     
    9559 H6         315.8112  -262.9312  -187.4332 H6            1 RES     
    9560 H6         316.6779  -261.4434  -185.7616 H6            1 RES     
    9561 H6         314.9615  -261.9754  -185.5991 H6            1 RES     
    9562 H6         315.4457  -263.5147  -183.8379 H6            1 RES     
    9563 H6         317.1862  -263.0164  -183.8083 H6            1 RES     
    9564 H6         316.5322  -260.6482  -183.4081 H6            1 RES     
    9565 H6         314.7846  -261.0468  -183.5231 H6            1 RES     
    9566 H6         315.5323  -260.6995  -181.2099 H6            1 RES     
    9567 H6         316.6780  -262.0875  -181.3325 H6            1 RES     
    9568 H6         314.6903  -263.6227  -181.7247 H6            1 RES     
    9569 H6         314.5107  -262.6882  -180.2009 H6            1 RES     
    9570 H6         313.5913  -262.1870  -181.6673 H6            1 RES     
    9571 C0         313.8448  -268.1176  -202.4546 C0            1 RES     
    9572 C1         313.9354  -266.9208  -201.4824 C1            1 RES     
    9573 C1         314.0144  -265.7308  -202.1328 C1            1 RES     
    9574 S2         314.2066  -264.4198  -201.1097 S2            1 RES     
    9575 C1         314.2352  -265.4150  -199.7314 C1            1 RES     
    9576 C1         314.0970  -266.7587  -200.0963 C1            1 RES     
    9577 C1         314.0214  -265.9721  -203.5236 C1            1 RES     
    9578 C1         314.0139  -267.3144  -203.7451 C1            1 RES     
    9579 C1         314.1644  -267.6287  -205.0904 C1            1 RES     
    9580 C1         314.2477  -266.4595  -205.8653 C1            1 RES     
    9581 S2         314.1553  -265.0600  -204.9081 S2            1 RES     
    9582 H3         314.1672  -267.5479  -199.3720 H3            1 RES     
    9583 H3         314.2157  -268.6369  -205.4837 H3            1 RES     
    9584 N4         313.8266  -265.8100  -209.5328 N4            1 RES     
    9585 C1         313.5474  -265.9054  -208.1998 C1            1 RES     
    9586 C1         314.5098  -266.3927  -207.2986 C1            1 RES     
    9587 C1         315.7610  -266.7526  -207.8024 C1            1 RES     
    9588 N4         316.7953  -267.1822  -207.0348 N4            1 RES     
    9589 S2         317.9982  -267.3865  -208.1498 S2            1 RES     
    9590 N4         317.2860  -266.9614  -209.5817 N4            1 RES     
    9591 C1         316.0326  -266.6257  -209.1879 C1            1 RES     
    9592 C1         315.0388  -266.1624  -210.0459 C1            1 RES     
    9593 H5         312.5666  -265.6086  -207.8386 H5            1 RES     
    9594 C0         312.5105  -268.9379  -202.5516 C0            1 RES     
    9595 C0         311.1167  -268.5474  -203.1734 C0            1 RES     
    9596 C0         310.1671  -269.7502  -202.8361 C0            1 RES     
    9597 C0         308.7380  -269.6802  -203.3883 C0            1 RES     
    9598 C0         307.8802  -270.8909  -202.9512 C0            1 RES     
    9599 C0         308.3650  -272.2720  -203.4447 C0            1 RES     
    9600 C0         308.5442  -272.3892  -204.9686 C0            1 RES     
    9601 C0         307.2593  -272.0701  -205.7532 C0            1 RES     
    9602 C0         307.4554  -272.1331  -207.2748 C0            1 RES     
    9603 C0         307.7428  -273.5535  -207.7900 C0            1 RES     
    9604 C0         307.8233  -273.6238  -209.3232 C0            1 RES     
    9605 C0         309.0083  -272.8485  -209.9004 C0            1 RES     
    9606 C0         310.4692  -267.1699  -202.8148 C0            1 RES     
    9607 C0         310.0337  -266.8923  -201.3431 C0            1 RES     
    9608 C0         310.7867  -265.6626  -200.8266 C0            1 RES     
    9609 C0         310.7743  -265.3931  -199.3246 C0            1 RES     
    9610 C0         309.5236  -264.7303  -198.7661 C0            1 RES     
    9611 C0         309.7438  -264.5097  -197.2547 C0            1 RES     
    9612 C0         308.6541  -263.6778  -196.5746 C0            1 RES     
    9613 C0         308.6655  -262.2186  -197.0350 C0            1 RES     
    9614 H6         312.2748  -269.2401  -201.5632 H6            1 RES     
    9615 H6         312.7933  -269.8523  -203.1204 H6            1 RES     
    9616 H6         311.2604  -268.5103  -204.2764 H6            1 RES     
    9617 H6         310.0867  -269.8552  -201.7320 H6            1 RES     
    9618 H6         310.6414  -270.6757  -203.2271 H6            1 RES     
    9619 H6         308.7602  -269.5950  -204.4938 H6            1 RES     
    9620 H6         308.2325  -268.7820  -202.9797 H6            1 RES     
    9621 H6         306.8431  -270.7262  -203.3097 H6            1 RES     
    9622 H6         307.8279  -270.9216  -201.8403 H6            1 RES     
    9623 H6         307.6298  -273.0362  -203.1071 H6            1 RES     
    9624 H6         309.3336  -272.5233  -202.9619 H6            1 RES     
    9625 H6         309.3557  -271.7052  -205.2954 H6            1 RES     
    9626 H6         308.8703  -273.4281  -205.1832 H6            1 RES     
    9627 H6         306.9490  -271.0302  -205.5246 H6            1 RES     
    9628 H6         306.4391  -272.7552  -205.4456 H6            1 RES     
    9629 H6         306.5150  -271.7769  -207.7490 H6            1 RES     
    9630 H6         308.2724  -271.4355  -207.5551 H6            1 RES     
    9631 H6         308.6888  -273.9473  -207.3639 H6            1 RES     
    9632 H6         306.9097  -274.2140  -207.4645 H6            1 RES     
    9633 H6         306.8773  -273.2453  -209.7683 H6            1 RES     
    9634 H6         307.9393  -274.6901  -209.6144 H6            1 RES     
    9635 H6         308.9237  -271.7636  -209.6885 H6            1 RES     
    9636 H6         309.9604  -273.2336  -209.4774 H6            1 RES     
    9637 H6         309.0309  -272.9790  -211.0026 H6            1 RES     
    9638 H6         309.5613  -267.0519  -203.4442 H6            1 RES     
    9639 H6         311.1321  -266.3646  -203.1974 H6            1 RES     
    9640 H6         308.9424  -266.6801  -201.2874 H6            1 RES     
    9641 H6         310.2463  -267.7772  -200.7093 H6            1 RES     
    9642 H6         310.5465  -264.7468  -201.4069 H6            1 RES     
    9643 H6         311.8105  -265.9040  -201.0186 H6            1 RES     
    9644 H6         310.9980  -266.3213  -198.7932 H6            1 RES     
    9645 H6         311.6156  -264.6908  -199.1256 H6            1 RES     
    9646 H6         309.4023  -263.7608  -199.2941 H6            1 RES     
    9647 H6         308.6218  -265.3555  -198.9368 H6            1 RES     
    9648 H6         309.7911  -265.5088  -196.7651 H6            1 RES     
    9649 H6         310.7179  -264.0009  -197.0733 H6            1 RES     
    9650 H6         308.8592  -263.6817  -195.4814 H6            1 RES     
    9651 H6         307.6568  -264.1345  -196.7467 H6            1 RES     
    9652 H6         308.4282  -262.1308  -198.1136 H6            1 RES     
    9653 H6         307.9071  -261.6445  -196.4651 H6            1 RES     
    9654 H6         309.6641  -261.7653  -196.8448 H6            1 RES     
    9655 C0         315.0827  -269.0320  -202.0983 C0            1 RES     
    9656 C0         315.0075  -270.4857  -201.4446 C0            1 RES     
    9657 C0         316.4046  -270.7481  -200.7878 C0            1 RES     
    9658 C0         316.6614  -272.1961  -200.3237 C0            1 RES     
    9659 C0         318.0359  -272.4028  -199.6633 C0            1 RES     
    9660 C0         319.2562  -272.0846  -200.5457 C0            1 RES     
    9661 C0         319.2883  -272.8080  -201.9022 C0            1 RES     
    9662 C0         319.2371  -274.3411  -201.7800 C0            1 RES     
    9663 C0         319.2648  -275.0487  -203.1444 C0            1 RES     
    9664 C0         320.6005  -274.8656  -203.8870 C0            1 RES     
    9665 C0         320.6775  -275.6733  -205.1919 C0            1 RES     
    9666 C0         319.6799  -275.2047  -206.2513 C0            1 RES     
    9667 C0         313.8316  -271.0157  -200.5209 C0            1 RES     
    9668 C0         313.5803  -270.4419  -199.0977 C0            1 RES     
    9669 C0         312.3334  -269.5411  -199.0407 C0            1 RES     
    9670 C0         312.0334  -268.8769  -197.7071 C0            1 RES     
    9671 C0         311.4984  -269.7693  -196.5960 C0            1 RES     
    9672 C0         311.1118  -268.8465  -195.4221 C0            1 RES     
    9673 C0         310.4075  -269.5547  -194.2634 C0            1 RES     
    9674 C0         309.0181  -270.0626  -194.6516 C0            1 RES     
    9675 H6         315.8065  -268.4165  -201.5150 H6            1 RES     
    9676 H6         315.6601  -269.1858  -203.0379 H6            1 RES     
    9677 H6         314.9232  -271.1648  -202.3243 H6            1 RES     
    9678 H6         316.5288  -270.0702  -199.9158 H6            1 RES     
    9679 H6         317.1848  -270.4893  -201.5356 H6            1 RES     
    9680 H6         316.5423  -272.8848  -201.1863 H6            1 RES     
    9681 H6         315.9330  -272.4843  -199.5411 H6            1 RES     
    9682 H6         318.0965  -273.4620  -199.3336 H6            1 RES     
    9683 H6         318.0987  -271.7771  -198.7458 H6            1 RES     
    9684 H6         320.1704  -272.3479  -199.9698 H6            1 RES     
    9685 H6         319.2947  -270.9910  -200.7373 H6            1 RES     
    9686 H6         318.4377  -272.4624  -202.5278 H6            1 RES     
    9687 H6         320.2267  -272.4983  -202.4058 H6            1 RES     
    9688 H6         318.2845  -274.6305  -201.2891 H6            1 RES     
    9689 H6         320.0775  -274.7058  -201.1505 H6            1 RES     
    9690 H6         319.1156  -276.1354  -202.9627 H6            1 RES     
    9691 H6         318.4156  -274.6787  -203.7573 H6            1 RES     
    9692 H6         320.7827  -273.7965  -204.1211 H6            1 RES     
    9693 H6         321.4169  -275.2224  -203.2217 H6            1 RES     
    9694 H6         320.5156  -276.7520  -204.9775 H6            1 RES     
    9695 H6         321.7002  -275.5536  -205.6100 H6            1 RES     
    9696 H6         318.6341  -275.3492  -205.9129 H6            1 RES     
    9697 H6         319.8467  -274.1322  -206.4879 H6            1 RES     
    9698 H6         319.8241  -275.7985  -207.1783 H6            1 RES     
    9699 H6         314.0591  -272.0865  -200.3672 H6            1 RES     
    9700 H6         312.8796  -271.1591  -201.0657 H6            1 RES     
    9701 H6         313.3336  -271.2950  -198.4279 H6            1 RES     
    9702 H6         314.4946  -269.9589  -198.6974 H6            1 RES     
    9703 H6         311.4379  -270.1006  -199.3946 H6            1 RES     
    9704 H6         312.4704  -268.6852  -199.6920 H6            1 RES     
    9705 H6         312.9178  -268.2955  -197.3667 H6            1 RES     
    9706 H6         311.2039  -268.1824  -197.9193 H6            1 RES     
    9707 H6         310.6041  -270.2985  -196.9875 H6            1 RES     
    9708 H6         312.2566  -270.5159  -196.2802 H6            1 RES     
    9709 H6         312.0405  -268.3689  -195.0393 H6            1 RES     
    9710 H6         310.4371  -268.0332  -195.7761 H6            1 RES     
    9711 H6         310.2739  -268.8068  -193.4512 H6            1 RES     
    9712 H6         311.0373  -270.3833  -193.8830 H6            1 RES     
    9713 H6         309.0765  -270.8456  -195.4334 H6            1 RES     
    9714 H6         308.5254  -270.4994  -193.7589 H6            1 RES     
    9715 H6         308.3910  -269.2226  -195.0232 H6            1 RES     
    9716 C0         315.4599  -267.2512  -215.3577 C0            1 RES     
    9717 C1         315.4244  -266.5867  -213.9639 C1            1 RES     
    9718 C1         316.0137  -265.3629  -213.9591 C1            1 RES     
    9719 S2         316.0743  -264.6545  -212.4436 S2            1 RES     
    9720 C1         315.3386  -266.0012  -211.7115 C1            1 RES     
    9721 C1         315.0607  -266.9852  -212.6667 C1            1 RES     
    9722 C1         316.5123  -265.0930  -215.2519 C1            1 RES     
    9723 C1         316.2952  -266.1732  -216.0500 C1            1 RES     
    9724 C1         316.8878  -266.0347  -217.2993 C1            1 RES     
    9725 C1         317.5252  -264.7873  -217.4090 C1            1 RES     
    9726 S2         317.3772  -263.8754  -215.9842 S2            1 RES     
    9727 H3         314.6644  -267.9431  -212.3880 H3            1 RES     
    9728 H3         316.8644  -266.7884  -218.0773 H3            1 RES     
    9729 N4         318.7322  -262.8039  -220.3516 N4            1 RES     
    9730 C1         317.9388  -263.2449  -219.3318 C1            1 RES     
    9731 C1         318.3364  -264.3300  -218.5317 C1            1 RES     
    9732 C1         319.5713  -264.9251  -218.7957 C1            1 RES     
    9733 N4         320.0983  -265.9405  -218.0644 N4            1 RES     
    9734 S2         321.5643  -266.1722  -218.7916 S2            1 RES     
    9735 N4         321.5846  -265.0489  -220.0066 N4            1 RES     
    9736 C1         320.3855  -264.4360  -219.8479 C1            1 RES     
    9737 C1         319.9376  -263.3749  -220.6304 C1            1 RES     
    9738 H5         316.9872  -262.7540  -219.1470 H5            1 RES     
    9739 C0         314.1250  -267.4375  -216.1616 C0            1 RES     
    9740 C0         313.2113  -266.3745  -216.8806 C0            1 RES     
    9741 C0         311.9647  -267.1824  -217.3864 C0            1 RES     
    9742 C0         310.9211  -266.4073  -218.2003 C0            1 RES     
    9743 C0         309.7156  -267.2901  -218.6005 C0            1 RES     
    9744 C0         310.0360  -268.4901  -219.5188 C0            1 RES     
    9745 C0         310.7679  -268.1301  -220.8237 C0            1 RES     
    9746 C0         309.9994  -267.1124  -221.6852 C0            1 RES     
    9747 C0         310.7576  -266.7127  -222.9592 C0            1 RES     
    9748 C0         310.9016  -267.8668  -223.9655 C0            1 RES     
    9749 C0         311.5595  -267.4269  -225.2830 C0            1 RES     
    9750 C0         313.0156  -266.9918  -225.1133 C0            1 RES     
    9751 C0         312.7977  -265.0714  -216.1216 C0            1 RES     
    9752 C0         311.8929  -265.1809  -214.8559 C0            1 RES     
    9753 C0         312.6350  -264.5730  -213.6618 C0            1 RES     
    9754 C0         312.0943  -264.8550  -212.2629 C0            1 RES     
    9755 C0         310.9054  -264.0174  -211.8151 C0            1 RES     
    9756 C0         310.5579  -264.4300  -210.3693 C0            1 RES     
    9757 C0         309.5025  -263.5473  -209.6991 C0            1 RES     
    9758 C0         310.0166  -262.1318  -209.4284 C0            1 RES     
    9759 H6         313.4598  -267.9539  -215.5177 H6            1 RES     
    9760 H6         314.3981  -268.1343  -216.9859 H6            1 RES     
    9761 H6         313.7805  -266.0138  -217.7663 H6            1 RES     
    9762 H6         311.4364  -267.6253  -216.5139 H6            1 RES     
    9763 H6         312.3365  -268.0204  -218.0140 H6            1 RES     
    9764 H6         311.3936  -265.9596  -219.0982 H6            1 RES     
    9765 H6         310.5084  -265.5875  -217.5783 H6            1 RES     
    9766 H6         308.9669  -266.6439  -219.1037 H6            1 RES     
    9767 H6         309.2262  -267.6816  -217.6812 H6            1 RES     
    9768 H6         309.0779  -268.9976  -219.7697 H6            1 RES     
    9769 H6         310.6555  -269.2290  -218.9669 H6            1 RES     
    9770 H6         311.7721  -267.7236  -220.5800 H6            1 RES     
    9771 H6         310.9131  -269.0728  -221.3910 H6            1 RES     
    9772 H6         309.8632  -266.1795  -221.1012 H6            1 RES     
    9773 H6         308.9947  -267.5101  -221.9482 H6            1 RES     
    9774 H6         310.1830  -265.8964  -223.4489 H6            1 RES     
    9775 H6         311.7514  -266.3124  -222.6681 H6            1 RES     
    9776 H6         311.4916  -268.7009  -223.5323 H6            1 RES     
    9777 H6         309.8838  -268.2447  -224.2055 H6            1 RES     
    9778 H6         310.9735  -266.5994  -225.7393 H6            1 RES     
    9779 H6         311.5411  -268.2898  -225.9832 H6            1 RES     
    9780 H6         313.0973  -266.0968  -224.4641 H6            1 RES     
    9781 H6         313.6143  -267.8195  -224.6772 H6            1 RES     
    9782 H6         313.4393  -266.7317  -226.1059 H6            1 RES     
    9783 H6         312.2603  -264.4192  -216.8429 H6            1 RES     
    9784 H6         313.7180  -264.4863  -215.9095 H6            1 RES     
    9785 H6         310.9439  -264.6170  -214.9987 H6            1 RES     
    9786 H6         311.6380  -266.2423  -214.6602 H6            1 RES     
    9787 H6         312.8511  -263.4933  -213.8050 H6            1 RES     
    9788 H6         313.5708  -265.0903  -213.6660 H6            1 RES     
    9789 H6         311.8797  -265.9226  -212.1712 H6            1 RES     
    9790 H6         312.9228  -264.6253  -211.5548 H6            1 RES     
    9791 H6         311.2191  -262.9529  -211.8583 H6            1 RES     
    9792 H6         310.0288  -264.1680  -212.4800 H6            1 RES     
    9793 H6         310.1866  -265.4797  -210.3915 H6            1 RES     
    9794 H6         311.4690  -264.4102  -209.7289 H6            1 RES     
    9795 H6         309.2558  -264.0039  -208.7152 H6            1 RES     
    9796 H6         308.5786  -263.5170  -210.3141 H6            1 RES     
    9797 H6         310.2474  -261.5961  -210.3702 H6            1 RES     
    9798 H6         309.2431  -261.5550  -208.8819 H6            1 RES     
    9799 H6         310.9338  -262.1718  -208.7992 H6            1 RES     
    9800 C0         316.2226  -268.6179  -215.1430 C0            1 RES     
    9801 C0         315.5769  -270.0721  -215.2633 C0            1 RES     
    9802 C0         316.5083  -271.0378  -214.4556 C0            1 RES     
    9803 C0         316.2346  -272.5432  -214.6477 C0            1 RES     
    9804 C0         317.1567  -273.4536  -213.8177 C0            1 RES     
    9805 C0         318.6628  -273.3207  -214.1057 C0            1 RES     
    9806 C0         319.0635  -273.4883  -215.5808 C0            1 RES     
    9807 C0         318.6301  -274.8362  -216.1837 C0            1 RES     
    9808 C0         319.0335  -274.9859  -217.6595 C0            1 RES     
    9809 C0         320.5578  -275.0603  -217.8592 C0            1 RES     
    9810 C0         320.9596  -275.3350  -219.3167 C0            1 RES     
    9811 C0         320.5886  -274.1984  -220.2693 C0            1 RES     
    9812 C0         314.0472  -270.4186  -215.0242 C0            1 RES     
    9813 C0         313.3916  -270.3229  -213.6174 C0            1 RES     
    9814 C0         312.4557  -269.1076  -213.4885 C0            1 RES     
    9815 C0         311.8118  -268.8851  -212.1299 C0            1 RES     
    9816 C0         310.7005  -269.8441  -211.7270 C0            1 RES     
    9817 C0         310.0992  -269.3112  -210.4104 C0            1 RES     
    9818 C0         308.8589  -270.0656  -209.9280 C0            1 RES     
    9819 C0         307.6583  -269.8611  -210.8531 C0            1 RES     
    9820 H6         316.7763  -268.5530  -214.1774 H6            1 RES     
    9821 H6         317.0726  -268.6374  -215.8620 H6            1 RES     
    9822 H6         315.6963  -270.3237  -216.3424 H6            1 RES     
    9823 H6         316.4272  -270.7991  -213.3731 H6            1 RES     
    9824 H6         317.5555  -270.8415  -214.7712 H6            1 RES     
    9825 H6         316.3142  -272.7962  -215.7258 H6            1 RES     
    9826 H6         315.2134  -272.7958  -214.3021 H6            1 RES     
    9827 H6         316.8468  -274.5048  -214.0000 H6            1 RES     
    9828 H6         316.9914  -273.2533  -212.7362 H6            1 RES     
    9829 H6         319.1946  -274.0822  -213.4942 H6            1 RES     
    9830 H6         319.0147  -272.3238  -213.7642 H6            1 RES     
    9831 H6         318.6261  -272.6619  -216.1809 H6            1 RES     
    9832 H6         320.1674  -273.3904  -215.6237 H6            1 RES     
    9833 H6         317.5230  -274.9069  -216.1461 H6            1 RES     
    9834 H6         319.0526  -275.6767  -215.5916 H6            1 RES     
    9835 H6         318.5883  -275.9327  -218.0355 H6            1 RES     
    9836 H6         318.5978  -274.1432  -218.2373 H6            1 RES     
    9837 H6         321.0492  -274.1225  -217.5272 H6            1 RES     
    9838 H6         320.9466  -275.8976  -217.2394 H6            1 RES     
    9839 H6         320.4919  -276.2817  -219.6644 H6            1 RES     
    9840 H6         322.0632  -275.4617  -219.3505 H6            1 RES     
    9841 H6         319.4902  -274.0571  -220.3206 H6            1 RES     
    9842 H6         321.0679  -273.2512  -219.9421 H6            1 RES     
    9843 H6         320.9494  -274.4437  -221.2903 H6            1 RES     
    9844 H6         313.9528  -271.4801  -215.3180 H6            1 RES     
    9845 H6         313.3793  -270.0052  -215.8031 H6            1 RES     
    9846 H6         312.7195  -271.2010  -213.4972 H6            1 RES     
    9847 H6         314.1578  -270.3790  -212.8179 H6            1 RES     
    9848 H6         311.6712  -269.1405  -214.2782 H6            1 RES     
    9849 H6         313.0232  -268.1932  -213.6204 H6            1 RES     
    9850 H6         312.5965  -268.8245  -211.3448 H6            1 RES     
    9851 H6         311.3084  -267.9078  -212.2142 H6            1 RES     
    9852 H6         309.9384  -269.8382  -212.5348 H6            1 RES     
    9853 H6         311.0880  -270.8760  -211.5967 H6            1 RES     
    9854 H6         310.8838  -269.3712  -209.6244 H6            1 RES     
    9855 H6         309.8159  -268.2391  -210.5212 H6            1 RES     
    9856 H6         308.5866  -269.6515  -208.9324 H6            1 RES     
    9857 H6         309.0883  -271.1436  -209.8134 H6            1 RES     
    9858 H6         307.8437  -270.2886  -211.8584 H6            1 RES     
    9859 H6         306.7714  -270.3666  -210.4191 H6            1 RES     
    9860 H6         307.4304  -268.7773  -210.9544 H6            1 RES     
    9861 C0         322.1565  -262.6332  -225.5400 C0            1 RES     
    9862 C1         321.7251  -262.5281  -224.0606 C1            1 RES     
    9863 C1         322.5206  -261.6884  -223.3483 C1            1 RES     
    9864 S2         322.1369  -261.6227  -221.7201 S2            1 RES     
    9865 C1         320.8945  -262.7697  -221.8985 C1            1 RES     
    9866 C1         320.8032  -263.1876  -223.2306 C1            1 RES     
    9867 C1         323.5327  -261.1909  -224.1973 C1            1 RES     
    9868 C1         323.4127  -261.7686  -225.4232 C1            1 RES     
    9869 C1         324.4626  -261.4341  -226.2699 C1            1 RES     
    9870 C1         325.3510  -260.5521  -225.6318 C1            1 RES     
    9871 S2         324.8619  -260.2028  -224.0437 S2            1 RES     
    9872 H3         320.1278  -263.9662  -223.5305 H3            1 RES     
    9873 H3         324.5800  -261.8077  -227.2801 H3            1 RES     
    9874 N4         328.0227  -258.2635  -226.9260 N4            1 RES     
    9875 C1         326.8165  -258.7065  -226.4644 C1            1 RES     
    9876 C1         326.6170  -260.0662  -226.1691 C1            1 RES     
    9877 C1         327.6912  -260.9414  -226.3393 C1            1 RES     
    9878 N4         327.6497  -262.2644  -226.0371 N4            1 RES     
    9879 S2         329.1925  -262.7502  -226.3772 S2            1 RES     
    9880 N4         329.9362  -261.3672  -226.8993 N4            1 RES     
    9881 C1         328.9393  -260.4533  -226.8013 C1            1 RES     
    9882 C1         329.0816  -259.1021  -227.1057 C1            1 RES     
    9883 H5         326.0032  -257.9977  -226.3345 H5            1 RES     
    9884 C0         321.2390  -262.0271  -226.6596 C0            1 RES     
    9885 C0         320.9409  -260.5255  -227.0313 C0            1 RES     
    9886 C0         319.8475  -260.5918  -228.1549 C0            1 RES     
    9887 C0         319.4069  -259.2585  -228.7718 C0            1 RES     
    9888 C0         318.2922  -259.4411  -229.8286 C0            1 RES     
    9889 C0         318.6727  -260.2776  -231.0701 C0            1 RES     
    9890 C0         319.9179  -259.7836  -231.8274 C0            1 RES     
    9891 C0         319.7953  -258.3250  -232.3030 C0            1 RES     
    9892 C0         321.0606  -257.8170  -233.0090 C0            1 RES     
    9893 C0         321.3283  -258.5188  -234.3512 C0            1 RES     
    9894 C0         322.5301  -257.9243  -235.1025 C0            1 RES     
    9895 C0         323.8598  -258.1405  -234.3790 C0            1 RES     
    9896 C0         320.5626  -259.5107  -225.9033 C0            1 RES     
    9897 C0         319.2340  -259.7115  -225.1114 C0            1 RES     
    9898 C0         319.5626  -259.8711  -223.6239 C0            1 RES     
    9899 C0         318.4685  -260.4003  -222.7010 C0            1 RES     
    9900 C0         317.4170  -259.3960  -222.2523 C0            1 RES     
    9901 C0         316.4481  -260.1250  -221.2978 C0            1 RES     
    9902 C0         315.4385  -259.2076  -220.6041 C0            1 RES     
    9903 C0         316.1049  -258.2667  -219.5981 C0            1 RES     
    9904 H6         320.2781  -262.4522  -226.5190 H6            1 RES     
    9905 H6         321.6518  -262.4441  -227.6059 H6            1 RES     
    9906 H6         321.8765  -260.1162  -227.4737 H6            1 RES     
    9907 H6         318.9355  -261.0825  -227.7502 H6            1 RES     
    9908 H6         320.2400  -261.2350  -228.9715 H6            1 RES     
    9909 H6         320.2803  -258.7345  -229.2106 H6            1 RES     
    9910 H6         318.9762  -258.6142  -227.9790 H6            1 RES     
    9911 H6         317.9644  -258.4346  -230.1615 H6            1 RES     
    9912 H6         317.4079  -259.9178  -229.3506 H6            1 RES     
    9913 H6         317.8034  -260.2783  -231.7649 H6            1 RES     
    9914 H6         318.8455  -261.3337  -230.7714 H6            1 RES     
    9915 H6         320.8088  -259.8846  -231.1723 H6            1 RES     
    9916 H6         320.0613  -260.4550  -232.6994 H6            1 RES     
    9917 H6         319.6513  -257.6711  -231.4189 H6            1 RES     
    9918 H6         318.9135  -258.2096  -232.9706 H6            1 RES     
    9919 H6         320.9207  -256.7321  -233.2080 H6            1 RES     
    9920 H6         321.9223  -257.9360  -232.3192 H6            1 RES     
    9921 H6         321.5003  -259.6053  -234.2045 H6            1 RES     
    9922 H6         320.4302  -258.3894  -234.9937 H6            1 RES     
    9923 H6         322.3693  -256.8370  -235.2708 H6            1 RES     
    9924 H6         322.5972  -258.4208  -236.0945 H6            1 RES     
    9925 H6         323.8763  -257.6218  -233.3993 H6            1 RES     
    9926 H6         324.0398  -259.2257  -234.2247 H6            1 RES     
    9927 H6         324.6852  -257.7279  -234.9962 H6            1 RES     
    9928 H6         320.5104  -258.5010  -226.3640 H6            1 RES     
    9929 H6         321.4306  -259.4158  -225.2163 H6            1 RES     
    9930 H6         318.5677  -258.8273  -225.2270 H6            1 RES     
    9931 H6         318.6945  -260.6026  -225.4917 H6            1 RES     
    9932 H6         320.0510  -258.9681  -223.2008 H6            1 RES     
    9933 H6         320.2850  -260.6593  -223.6160 H6            1 RES     
    9934 H6         318.0045  -261.2756  -223.1621 H6            1 RES     
    9935 H6         318.9812  -260.7502  -221.7762 H6            1 RES     
    9936 H6         317.9499  -258.5764  -221.7252 H6            1 RES     
    9937 H6         316.8620  -258.9750  -223.1171 H6            1 RES     
    9938 H6         315.8928  -260.8881  -221.8891 H6            1 RES     
    9939 H6         317.0146  -260.6631  -220.5040 H6            1 RES     
    9940 H6         314.7311  -259.8517  -220.0368 H6            1 RES     
    9941 H6         314.8617  -258.6303  -221.3569 H6            1 RES     
    9942 H6         316.7991  -257.5628  -220.0979 H6            1 RES     
    9943 H6         315.3277  -257.6740  -219.0743 H6            1 RES     
    9944 H6         316.6680  -258.8549  -218.8393 H6            1 RES     
    9945 C0         322.4503  -264.1675  -225.7752 C0            1 RES     
    9946 C0         321.5989  -265.1455  -226.7050 C0            1 RES     
    9947 C0         321.8995  -266.6002  -226.2091 C0            1 RES     
    9948 C0         321.3971  -267.7339  -227.1257 C0            1 RES     
    9949 C0         321.6929  -269.1452  -226.5882 C0            1 RES     
    9950 C0         323.1799  -269.4826  -226.3785 C0            1 RES     
    9951 C0         324.0792  -269.2642  -227.6065 C0            1 RES     
    9952 C0         323.6303  -270.0614  -228.8438 C0            1 RES     
    9953 C0         324.5363  -269.8281  -230.0637 C0            1 RES     
    9954 C0         325.9590  -270.3818  -229.8676 C0            1 RES     
    9955 C0         326.8287  -270.2624  -231.1288 C0            1 RES     
    9956 C0         327.1230  -268.8152  -231.5239 C0            1 RES     
    9957 C0         320.0628  -264.9671  -227.0593 C0            1 RES     
    9958 C0         318.9467  -265.1306  -225.9889 C0            1 RES     
    9959 C0         318.3299  -263.7826  -225.5747 C0            1 RES     
    9960 C0         317.2713  -263.8241  -224.4851 C0            1 RES     
    9961 C0         315.9086  -264.3848  -224.8671 C0            1 RES     
    9962 C0         314.9733  -264.1593  -223.6615 C0            1 RES     
    9963 C0         313.5096  -264.5235  -223.9170 C0            1 RES     
    9964 C0         312.8461  -263.5871  -224.9280 C0            1 RES     
    9965 H6         322.5801  -264.6481  -224.7776 H6            1 RES     
    9966 H6         323.4870  -264.2471  -226.1738 H6            1 RES     
    9967 H6         322.0732  -265.0336  -227.7073 H6            1 RES     
    9968 H6         321.4553  -266.7387  -225.1997 H6            1 RES     
    9969 H6         323.0017  -266.7052  -226.1146 H6            1 RES     
    9970 H6         321.8351  -267.6089  -228.1382 H6            1 RES     
    9971 H6         320.2939  -267.6976  -227.2134 H6            1 RES     
    9972 H6         321.2549  -269.8767  -227.3005 H6            1 RES     
    9973 H6         321.1653  -269.2856  -225.6192 H6            1 RES     
    9974 H6         323.2460  -270.5467  -226.0623 H6            1 RES     
    9975 H6         323.5808  -268.8685  -225.5441 H6            1 RES     
    9976 H6         324.1073  -268.1825  -227.8588 H6            1 RES     
    9977 H6         325.1032  -269.5692  -227.3092 H6            1 RES     
    9978 H6         322.6115  -269.7298  -229.1343 H6            1 RES     
    9979 H6         323.5889  -271.1469  -228.6087 H6            1 RES     
    9980 H6         324.0765  -270.3530  -230.9293 H6            1 RES     
    9981 H6         324.5607  -268.7408  -230.2892 H6            1 RES     
    9982 H6         326.4751  -269.8665  -229.0315 H6            1 RES     
    9983 H6         325.8773  -271.4619  -229.6161 H6            1 RES     
    9984 H6         326.3378  -270.7886  -231.9761 H6            1 RES     
    9985 H6         327.7991  -270.7644  -230.9254 H6            1 RES     
    9986 H6         326.1939  -268.2731  -231.7918 H6            1 RES     
    9987 H6         327.6324  -268.2858  -230.6907 H6            1 RES     
    9988 H6         327.7914  -268.8063  -232.4104 H6            1 RES     
    9989 H6         319.8586  -265.7479  -227.8147 H6            1 RES     
    9990 H6         319.8638  -264.0960  -227.7114 H6            1 RES     
    9991 H6         318.1050  -265.6846  -226.4601 H6            1 RES     
    9992 H6         319.3046  -265.7362  -225.1318 H6            1 RES     
    9993 H6         317.9321  -263.2505  -226.4686 H6            1 RES     
    9994 H6         319.0908  -263.1549  -225.1247 H6            1 RES     
    9995 H6         317.6772  -264.3307  -223.5826 H6            1 RES     
    9996 H6         317.0715  -262.7664  -224.2469 H6            1 RES     
    9997 H6         315.5466  -263.8212  -225.7528 H6            1 RES     
    9998 H6         315.9749  -265.4632  -225.1212 H6            1 RES     
    9999 H6         315.3521  -264.7704  -222.8128 H6            1 RES     
   10000 H6         315.0014  -263.0911  -223.3452 H6            1 RES     
   10001 H6         312.9677  -264.4102  -222.9525 H6            1 RES     
   10002 H6         313.4306  -265.5783  -224.2469 H6            1 RES     
   10003 H6         313.3114  -263.6767  -225.9296 H6            1 RES     
   10004 H6         311.7721  -263.8489  -225.0195 H6            1 RES     
   10005 H6         312.9226  -262.5323  -224.5837 H6            1 RES     
   10006 C0         333.1532  -257.5767  -230.3727 C0            1 RES     
   10007 C1         332.2109  -257.8394  -229.1774 C1            1 RES     
   10008 C1         332.8275  -257.6517  -227.9816 C1            1 RES     
   10009 S2         331.8607  -258.0174  -226.6648 S2            1 RES     
   10010 C1         330.5675  -258.4913  -227.6617 C1            1 RES     
   10011 C1         330.9161  -258.3583  -229.0102 C1            1 RES     
   10012 C1         334.1745  -257.2993  -228.2146 C1            1 RES     
   10013 C1         334.4203  -257.3304  -229.5524 C1            1 RES     
   10014 C1         335.7640  -257.1333  -229.8473 C1            1 RES     
   10015 C1         336.5021  -256.9175  -228.6713 C1            1 RES     
   10016 S2         335.5197  -256.9857  -227.2880 S2            1 RES     
   10017 H3         330.2583  -258.6798  -229.7952 H3            1 RES     
   10018 H3         336.1824  -257.1498  -230.8465 H3            1 RES     
   10019 N4         339.9020  -255.4719  -228.0381 N4            1 RES     
   10020 C1         338.5459  -255.5722  -228.1615 C1            1 RES     
   10021 C1         337.9508  -256.7758  -228.5773 C1            1 RES     
   10022 C1         338.7826  -257.8665  -228.8365 C1            1 RES     
   10023 N4         338.3339  -259.0987  -229.1884 N4            1 RES     
   10024 S2         339.7370  -259.9660  -229.2933 S2            1 RES     
   10025 N4         340.9122  -258.8632  -228.9175 N4            1 RES     
   10026 C1         340.1862  -257.7424  -228.6820 C1            1 RES     
   10027 C1         340.7320  -256.5220  -228.2928 C1            1 RES     
   10028 H5         337.9260  -254.7069  -227.9435 H5            1 RES     
   10029 C0         332.9077  -256.3299  -231.2935 C0            1 RES     
   10030 C0         333.1201  -254.7950  -231.0091 C0            1 RES     
   10031 C0         332.5702  -254.0632  -232.2837 C0            1 RES     
   10032 C0         332.7143  -252.5367  -232.3219 C0            1 RES     
   10033 C0         332.0934  -251.9207  -233.5977 C0            1 RES     
   10034 C0         332.7349  -252.3534  -234.9345 C0            1 RES     
   10035 C0         334.2531  -252.1210  -235.0299 C0            1 RES     
   10036 C0         334.6534  -250.6517  -234.8074 C0            1 RES     
   10037 C0         336.1726  -250.4323  -234.8474 C0            1 RES     
   10038 C0         336.7827  -250.6726  -236.2387 C0            1 RES     
   10039 C0         338.2821  -250.3395  -236.2948 C0            1 RES     
   10040 C0         339.1374  -251.2636  -235.4271 C0            1 RES     
   10041 C0         332.5646  -254.1698  -229.6879 C0            1 RES     
   10042 C0         331.0233  -254.1303  -229.4522 C0            1 RES     
   10043 C0         330.6977  -254.9029  -228.1704 C0            1 RES     
   10044 C0         329.2416  -255.2783  -227.9102 C0            1 RES     
   10045 C0         328.3493  -254.1807  -227.3492 C0            1 RES     
   10046 C0         326.9483  -254.7854  -227.1197 C0            1 RES     
   10047 C0         325.9781  -253.8629  -226.3782 C0            1 RES     
   10048 C0         326.3867  -253.6421  -224.9203 C0            1 RES     
   10049 H6         331.9005  -256.3936  -231.6180 H6            1 RES     
   10050 H6         333.5552  -256.5142  -232.1804 H6            1 RES     
   10051 H6         334.2196  -254.6313  -230.9556 H6            1 RES     
   10052 H6         331.4885  -254.2929  -232.4001 H6            1 RES     
   10053 H6         333.0985  -254.4803  -233.1677 H6            1 RES     
   10054 H6         333.7822  -252.2523  -232.2297 H6            1 RES     
   10055 H6         332.1614  -252.0965  -231.4677 H6            1 RES     
   10056 H6         332.1544  -250.8161  -233.5121 H6            1 RES     
   10057 H6         331.0108  -252.1738  -233.6379 H6            1 RES     
   10058 H6         332.2313  -251.7953  -235.7551 H6            1 RES     
   10059 H6         332.5380  -253.4323  -235.1124 H6            1 RES     
   10060 H6         334.7690  -252.7611  -234.2834 H6            1 RES     
   10061 H6         334.5745  -252.4520  -236.0392 H6            1 RES     
   10062 H6         334.3228  -250.3397  -233.7958 H6            1 RES     
   10063 H6         334.1538  -249.9981  -235.5556 H6            1 RES     
   10064 H6         336.3661  -249.3750  -234.5629 H6            1 RES     
   10065 H6         336.6448  -251.0893  -234.0872 H6            1 RES     
   10066 H6         336.6380  -251.7248  -236.5600 H6            1 RES     
   10067 H6         336.2617  -250.0096  -236.9634 H6            1 RES     
   10068 H6         338.4455  -249.2832  -235.9886 H6            1 RES     
   10069 H6         338.6212  -250.4500  -237.3474 H6            1 RES     
   10070 H6         338.8825  -251.1603  -234.3531 H6            1 RES     
   10071 H6         338.9970  -252.3203  -235.7394 H6            1 RES     
   10072 H6         340.2078  -250.9961  -235.5500 H6            1 RES     
   10073 H6         332.9224  -253.1192  -229.6374 H6            1 RES     
   10074 H6         333.0910  -254.6433  -228.8316 H6            1 RES     
   10075 H6         330.6698  -253.0824  -229.3255 H6            1 RES     
   10076 H6         330.4935  -254.5710  -230.3211 H6            1 RES     
   10077 H6         331.1677  -254.4480  -227.2731 H6            1 RES     
   10078 H6         331.1649  -255.8512  -228.3308 H6            1 RES     
   10079 H6         328.8143  -255.7050  -228.8210 H6            1 RES     
   10080 H6         329.2589  -256.0882  -227.1458 H6            1 RES     
   10081 H6         328.7998  -253.8501  -226.3894 H6            1 RES     
   10082 H6         328.2865  -253.3147  -228.0415 H6            1 RES     
   10083 H6         326.5155  -255.0368  -228.1146 H6            1 RES     
   10084 H6         327.0234  -255.7322  -226.5379 H6            1 RES     
   10085 H6         324.9813  -254.3563  -226.3717 H6            1 RES     
   10086 H6         325.8865  -252.8926  -226.9101 H6            1 RES     
   10087 H6         327.3586  -253.1156  -224.8457 H6            1 RES     
   10088 H6         325.6187  -253.0265  -224.4096 H6            1 RES     
   10089 H6         326.4614  -254.6188  -224.3919 H6            1 RES     
   10090 C0         333.1678  -258.9284  -231.1902 C0            1 RES     
   10091 C0         332.5559  -259.1399  -232.6486 C0            1 RES     
   10092 C0         332.3074  -260.6781  -232.8051 C0            1 RES     
   10093 C0         331.9673  -261.1564  -234.2312 C0            1 RES     
   10094 C0         331.7079  -262.6698  -234.3339 C0            1 RES     
   10095 C0         332.8783  -263.5786  -233.9176 C0            1 RES     
   10096 C0         334.2114  -263.2947  -234.6296 C0            1 RES     
   10097 C0         334.1195  -263.3911  -236.1627 C0            1 RES     
   10098 C0         335.4586  -263.0998  -236.8592 C0            1 RES     
   10099 C0         336.5290  -264.1671  -236.5693 C0            1 RES     
   10100 C0         337.8267  -263.9465  -237.3621 C0            1 RES     
   10101 C0         338.5652  -262.6676  -236.9669 C0            1 RES     
   10102 C0         331.3631  -258.3005  -233.2728 C0            1 RES     
   10103 C0         329.9106  -258.4029  -232.7273 C0            1 RES     
   10104 C0         329.4960  -257.1556  -231.9262 C0            1 RES     
   10105 C0         328.1142  -257.1805  -231.2939 C0            1 RES     
   10106 C0         326.9234  -257.0335  -232.2307 C0            1 RES     
   10107 C0         325.6654  -256.9129  -231.3465 C0            1 RES     
   10108 C0         324.3783  -256.6029  -232.1130 C0            1 RES     
   10109 C0         324.3901  -255.2014  -232.7251 C0            1 RES     
   10110 H6         332.7858  -259.7361  -230.5233 H6            1 RES     
   10111 H6         334.2321  -259.2392  -231.2940 H6            1 RES     
   10112 H6         333.3974  -258.8704  -233.3278 H6            1 RES     
   10113 H6         331.4841  -260.9839  -232.1240 H6            1 RES     
   10114 H6         333.2310  -261.2053  -232.4829 H6            1 RES     
   10115 H6         332.7833  -260.8589  -234.9226 H6            1 RES     
   10116 H6         331.0250  -260.6906  -234.5788 H6            1 RES     
   10117 H6         331.4342  -262.8949  -235.3869 H6            1 RES     
   10118 H6         330.8256  -262.9328  -233.7099 H6            1 RES     
   10119 H6         332.5775  -264.6313  -234.1122 H6            1 RES     
   10120 H6         333.0449  -263.4834  -232.8234 H6            1 RES     
   10121 H6         334.5751  -262.2834  -234.3479 H6            1 RES     
   10122 H6         334.9413  -264.0362  -234.2455 H6            1 RES     
   10123 H6         333.3974  -262.6311  -236.5275 H6            1 RES     
   10124 H6         333.7497  -264.3950  -236.4642 H6            1 RES     
   10125 H6         335.2715  -263.0855  -237.9550 H6            1 RES     
   10126 H6         335.8098  -262.0915  -236.5531 H6            1 RES     
   10127 H6         336.7759  -264.2002  -235.4881 H6            1 RES     
   10128 H6         336.1182  -265.1571  -236.8650 H6            1 RES     
   10129 H6         337.6045  -263.9283  -238.4511 H6            1 RES     
   10130 H6         338.5020  -264.8060  -237.1613 H6            1 RES     
   10131 H6         337.9610  -261.7662  -237.1937 H6            1 RES     
   10132 H6         338.8103  -262.6849  -235.8835 H6            1 RES     
   10133 H6         339.5117  -262.5983  -237.5432 H6            1 RES     
   10134 H6         331.3043  -258.6390  -234.3235 H6            1 RES     
   10135 H6         331.6343  -257.2496  -233.4868 H6            1 RES     
   10136 H6         329.2213  -258.4102  -233.6003 H6            1 RES     
   10137 H6         329.7595  -259.3535  -232.1768 H6            1 RES     
   10138 H6         329.6095  -256.2412  -232.5517 H6            1 RES     
   10139 H6         330.1378  -257.0478  -231.0590 H6            1 RES     
   10140 H6         328.0103  -258.0789  -230.6474 H6            1 RES     
   10141 H6         328.0768  -256.2759  -230.6648 H6            1 RES     
   10142 H6         327.0727  -256.1078  -232.8256 H6            1 RES     
   10143 H6         326.8434  -257.9015  -232.9178 H6            1 RES     
   10144 H6         325.5351  -257.8730  -230.8002 H6            1 RES     
   10145 H6         325.8030  -256.1098  -230.5862 H6            1 RES     
   10146 H6         323.5411  -256.6400  -231.3818 H6            1 RES     
   10147 H6         324.2035  -257.3711  -232.8922 H6            1 RES     
   10148 H6         325.1787  -255.1030  -233.4974 H6            1 RES     
   10149 H6         323.4092  -255.0024  -233.2034 H6            1 RES     
   10150 H6         324.5570  -254.4372  -231.9345 H6            1 RES     
   10151 C0         345.9867  -255.5665  -229.3192 C0            1 RES     
   10152 C1         344.6183  -255.8614  -228.6664 C1            1 RES     
   10153 C1         344.7412  -256.3387  -227.4006 C1            1 RES     
   10154 S2         343.2804  -256.7557  -226.6972 S2            1 RES     
   10155 C1         342.4120  -256.3466  -228.1006 C1            1 RES     
   10156 C1         343.2818  -255.8932  -229.0983 C1            1 RES     
   10157 C1         346.1131  -256.4471  -227.0863 C1            1 RES     
   10158 C1         346.8506  -256.1016  -228.1761 C1            1 RES     
   10159 C1         348.2095  -256.3216  -227.9858 C1            1 RES     
   10160 C1         348.4548  -256.8122  -226.6922 C1            1 RES     
   10161 S2         347.0199  -256.9895  -225.8017 S2            1 RES     
   10162 H3         342.9314  -255.6585  -230.0854 H3            1 RES     
   10163 H3         348.9715  -256.1436  -228.7352 H3            1 RES     
   10164 N4         351.5618  -257.0279  -224.6065 N4            1 RES     
   10165 C1         350.3774  -256.5751  -225.1128 C1            1 RES     
   10166 C1         349.7426  -257.2530  -226.1679 C1            1 RES     
   10167 C1         350.3453  -258.4103  -226.6641 C1            1 RES     
   10168 N4         349.8097  -259.1887  -227.6392 N4            1 RES     
   10169 S2         350.9113  -260.4157  -227.7528 S2            1 RES     
   10170 N4         352.0573  -260.0235  -226.6253 N4            1 RES     
   10171 C1         351.5651  -258.8708  -226.1080 C1            1 RES     
   10172 C1         352.1701  -258.1511  -225.0810 C1            1 RES     
   10173 H5         349.9301  -255.6758  -224.6981 H5            1 RES     
   10174 C0         346.4051  -254.0811  -229.6044 C0            1 RES     
   10175 C0         346.8232  -252.9313  -228.6118 C0            1 RES     
   10176 C0         346.9945  -251.6570  -229.5114 C0            1 RES     
   10177 C0         347.4764  -250.3780  -228.8155 C0            1 RES     
   10178 C0         347.5591  -249.1772  -229.7872 C0            1 RES     
   10179 C0         348.5605  -249.3238  -230.9541 C0            1 RES     
   10180 C0         350.0047  -249.6463  -230.5319 C0            1 RES     
   10181 C0         350.6004  -248.6006  -229.5725 C0            1 RES     
   10182 C0         352.0208  -248.9537  -229.1088 C0            1 RES     
   10183 C0         353.0582  -248.9038  -230.2433 C0            1 RES     
   10184 C0         354.4926  -249.1460  -229.7471 C0            1 RES     
   10185 C0         354.7108  -250.5576  -229.2012 C0            1 RES     
   10186 C0         345.9474  -252.6445  -227.3486 C0            1 RES     
   10187 C0         344.4877  -252.1272  -227.5342 C0            1 RES     
   10188 C0         343.5229  -253.1185  -226.8766 C0            1 RES     
   10189 C0         342.0377  -252.9993  -227.2066 C0            1 RES     
   10190 C0         341.2643  -251.9182  -226.4660 C0            1 RES     
   10191 C0         339.7895  -252.0067  -226.9116 C0            1 RES     
   10192 C0         338.8368  -251.1107  -226.1167 C0            1 RES     
   10193 C0         338.6784  -251.5738  -224.6670 C0            1 RES     
   10194 H6         345.6192  -253.6550  -230.1740 H6            1 RES     
   10195 H6         347.2903  -254.1708  -230.2738 H6            1 RES     
   10196 H6         347.8200  -253.2112  -228.2036 H6            1 RES     
   10197 H6         346.0236  -251.4189  -229.9983 H6            1 RES     
   10198 H6         347.7206  -251.9052  -230.3149 H6            1 RES     
   10199 H6         348.4566  -250.5553  -228.3281 H6            1 RES     
   10200 H6         346.7451  -250.0904  -228.0333 H6            1 RES     
   10201 H6         347.8248  -248.2749  -229.1984 H6            1 RES     
   10202 H6         346.5523  -248.9853  -230.2200 H6            1 RES     
   10203 H6         348.5566  -248.3734  -231.5331 H6            1 RES     
   10204 H6         348.2155  -250.1222  -231.6454 H6            1 RES     
   10205 H6         350.0306  -250.6464  -230.0499 H6            1 RES     
   10206 H6         350.6144  -249.7010  -231.4576 H6            1 RES     
   10207 H6         349.9774  -248.5597  -228.6559 H6            1 RES     
   10208 H6         350.5927  -247.5942  -230.0456 H6            1 RES     
   10209 H6         352.3162  -248.2097  -228.3372 H6            1 RES     
   10210 H6         351.9985  -249.9572  -228.6342 H6            1 RES     
   10211 H6         352.8219  -249.6487  -231.0312 H6            1 RES     
   10212 H6         353.0243  -247.8896  -230.6977 H6            1 RES     
   10213 H6         354.7523  -248.3992  -228.9653 H6            1 RES     
   10214 H6         355.1838  -249.0018  -230.6053 H6            1 RES     
   10215 H6         354.0848  -250.7464  -228.3059 H6            1 RES     
   10216 H6         354.4740  -251.3111  -229.9822 H6            1 RES     
   10217 H6         355.7739  -250.6762  -228.9041 H6            1 RES     
   10218 H6         346.4798  -251.8855  -226.7363 H6            1 RES     
   10219 H6         345.9764  -253.5425  -226.6949 H6            1 RES     
   10220 H6         344.3546  -251.1363  -227.0449 H6            1 RES     
   10221 H6         344.2580  -252.0134  -228.6131 H6            1 RES     
   10222 H6         343.6912  -253.2080  -225.7827 H6            1 RES     
   10223 H6         343.7928  -254.0534  -227.3197 H6            1 RES     
   10224 H6         341.9191  -252.8965  -228.2881 H6            1 RES     
   10225 H6         341.5738  -253.9696  -226.9170 H6            1 RES     
   10226 H6         341.3630  -252.1296  -225.3802 H6            1 RES     
   10227 H6         341.6717  -250.9077  -226.6808 H6            1 RES     
   10228 H6         339.7378  -251.7213  -227.9868 H6            1 RES     
   10229 H6         339.4184  -253.0533  -226.8243 H6            1 RES     
   10230 H6         337.8350  -251.1741  -226.5959 H6            1 RES     
   10231 H6         339.1787  -250.0551  -226.1551 H6            1 RES     
   10232 H6         339.6334  -251.5008  -224.1102 H6            1 RES     
   10233 H6         337.9288  -250.9373  -224.1546 H6            1 RES     
   10234 H6         338.3214  -252.6276  -224.6389 H6            1 RES     
   10235 C0         346.0210  -256.4568  -230.6236 C0            1 RES     
   10236 C0         346.0002  -255.9111  -232.1229 C0            1 RES     
   10237 C0         345.4989  -257.0947  -233.0175 C0            1 RES     
   10238 C0         345.6489  -256.8902  -234.5386 C0            1 RES     
   10239 C0         345.1223  -258.0670  -235.3789 C0            1 RES     
   10240 C0         345.8025  -259.4247  -235.1282 C0            1 RES     
   10241 C0         347.3348  -259.4218  -235.2568 C0            1 RES     
   10242 C0         347.8330  -258.9413  -236.6313 C0            1 RES     
   10243 C0         349.3663  -258.9394  -236.7418 C0            1 RES     
   10244 C0         349.9717  -260.3538  -236.6968 C0            1 RES     
   10245 C0         351.4901  -260.3645  -236.9322 C0            1 RES     
   10246 C0         352.2776  -259.6670  -235.8231 C0            1 RES     
   10247 C0         345.3662  -254.5332  -232.5881 C0            1 RES     
   10248 C0         343.8328  -254.2781  -232.5506 C0            1 RES     
   10249 C0         343.4247  -253.3257  -231.4123 C0            1 RES     
   10250 C0         341.9376  -253.0596  -231.2471 C0            1 RES     
   10251 C0         341.2746  -252.1725  -232.2914 C0            1 RES     
   10252 C0         339.8313  -251.9131  -231.8133 C0            1 RES     
   10253 C0         339.0518  -250.9087  -232.6641 C0            1 RES     
   10254 C0         339.6130  -249.4907  -232.5486 C0            1 RES     
   10255 H6         345.2394  -257.2452  -230.5208 H6            1 RES     
   10256 H6         346.9430  -257.0793  -230.5735 H6            1 RES     
   10257 H6         347.0776  -255.7517  -232.3591 H6            1 RES     
   10258 H6         344.4289  -257.2928  -232.7913 H6            1 RES     
   10259 H6         346.0802  -257.9999  -232.7390 H6            1 RES     
   10260 H6         346.7146  -256.6930  -234.7792 H6            1 RES     
   10261 H6         345.0473  -256.0224  -234.8714 H6            1 RES     
   10262 H6         345.2413  -257.7971  -236.4500 H6            1 RES     
   10263 H6         344.0315  -258.1867  -235.1974 H6            1 RES     
   10264 H6         345.3770  -260.1567  -235.8492 H6            1 RES     
   10265 H6         345.5430  -259.7819  -234.1088 H6            1 RES     
   10266 H6         347.7730  -258.7788  -234.4638 H6            1 RES     
   10267 H6         347.6714  -260.4625  -235.0734 H6            1 RES     
   10268 H6         347.4999  -257.8940  -236.7878 H6            1 RES     
   10269 H6         347.3988  -259.5688  -237.4394 H6            1 RES     
   10270 H6         349.6324  -258.4796  -237.7184 H6            1 RES     
   10271 H6         349.7831  -258.3029  -235.9326 H6            1 RES     
   10272 H6         349.7605  -260.8466  -235.7254 H6            1 RES     
   10273 H6         349.5016  -260.9563  -237.5045 H6            1 RES     
   10274 H6         351.7230  -259.8908  -237.9106 H6            1 RES     
   10275 H6         351.8237  -261.4239  -236.9728 H6            1 RES     
   10276 H6         352.0269  -258.5885  -235.7671 H6            1 RES     
   10277 H6         352.0675  -260.1463  -234.8432 H6            1 RES     
   10278 H6         353.3641  -259.7546  -236.0346 H6            1 RES     
   10279 H6         345.6510  -254.4407  -233.6523 H6            1 RES     
   10280 H6         345.9252  -253.6507  -232.2239 H6            1 RES     
   10281 H6         343.5584  -253.7300  -233.4788 H6            1 RES     
   10282 H6         343.2714  -255.2343  -232.5511 H6            1 RES     
   10283 H6         343.9741  -252.3611  -231.5019 H6            1 RES     
   10284 H6         343.6813  -253.7676  -230.4559 H6            1 RES     
   10285 H6         341.3920  -254.0211  -231.1297 H6            1 RES     
   10286 H6         341.8577  -252.4820  -230.3114 H6            1 RES     
   10287 H6         341.8464  -251.2217  -232.3406 H6            1 RES     
   10288 H6         341.2805  -252.6554  -233.2908 H6            1 RES     
   10289 H6         339.2880  -252.8836  -231.8162 H6            1 RES     
   10290 H6         339.8338  -251.5326  -230.7659 H6            1 RES     
   10291 H6         338.0093  -250.8869  -232.2773 H6            1 RES     
   10292 H6         339.0312  -251.2389  -233.7216 H6            1 RES     
   10293 H6         340.6418  -249.4276  -232.9555 H6            1 RES     
   10294 H6         338.9690  -248.7941  -233.1236 H6            1 RES     
   10295 H6         339.6210  -249.1651  -231.4852 H6            1 RES     
   10296 C0         357.4755  -258.8958  -224.1449 C0            1 RES     
   10297 C1         355.9324  -258.8750  -224.0810 C1            1 RES     
   10298 C1         355.4396  -259.7700  -223.1857 C1            1 RES     
   10299 S2         353.7672  -259.8382  -223.1581 S2            1 RES     
   10300 C1         353.6333  -258.6815  -224.3970 C1            1 RES     
   10301 C1         354.9017  -258.2635  -224.8141 C1            1 RES     
   10302 C1         356.5171  -260.4749  -222.6070 C1            1 RES     
   10303 C1         357.6796  -260.0698  -223.1860 C1            1 RES     
   10304 C1         358.7693  -260.8235  -222.7669 C1            1 RES     
   10305 C1         358.3720  -261.7844  -221.8219 C1            1 RES     
   10306 S2         356.7024  -261.7198  -221.5195 S2            1 RES     
   10307 H3         355.0282  -257.5910  -225.6412 H3            1 RES     
   10308 H3         359.7830  -260.6898  -223.1252 H3            1 RES     
   10309 N4         360.2795  -263.8302  -219.3266 N4            1 RES     
   10310 C1         359.5212  -262.8300  -219.8640 C1            1 RES     
   10311 C1         359.2182  -262.8183  -221.2365 C1            1 RES     
   10312 C1         359.6946  -263.8673  -222.0250 C1            1 RES     
   10313 N4         359.4267  -264.0064  -223.3487 N4            1 RES     
   10314 S2         360.1828  -265.4305  -223.7117 S2            1 RES     
   10315 N4         360.8503  -265.9015  -222.2726 N4            1 RES     
   10316 C1         360.4634  -264.9042  -221.4393 C1            1 RES     
   10317 C1         360.7599  -264.8593  -220.0796 C1            1 RES     
   10318 H5         359.1584  -262.0328  -219.2211 H5            1 RES     
   10319 C0         358.2899  -257.6673  -223.6062 C0            1 RES     
   10320 C0         358.5285  -257.1705  -222.1303 C0            1 RES     
   10321 C0         359.3168  -255.8214  -222.2756 C0            1 RES     
   10322 C0         359.7572  -255.1337  -220.9774 C0            1 RES     
   10323 C0         360.4784  -253.7907  -221.2406 C0            1 RES     
   10324 C0         361.7977  -253.8808  -222.0389 C0            1 RES     
   10325 C0         362.8499  -254.8344  -221.4460 C0            1 RES     
   10326 C0         363.2369  -254.4810  -219.9990 C0            1 RES     
   10327 C0         364.2448  -255.4668  -219.3908 C0            1 RES     
   10328 C0         365.6271  -255.4115  -220.0630 C0            1 RES     
   10329 C0         366.6592  -256.3178  -219.3734 C0            1 RES     
   10330 C0         366.3271  -257.8059  -219.4894 C0            1 RES     
   10331 C0         357.3145  -257.0387  -221.1536 C0            1 RES     
   10332 C0         356.1989  -255.9929  -221.4607 C0            1 RES     
   10333 C0         354.8599  -256.7231  -221.6018 C0            1 RES     
   10334 C0         353.6900  -255.9619  -222.2189 C0            1 RES     
   10335 C0         352.9484  -255.0007  -221.3014 C0            1 RES     
   10336 C0         351.7871  -254.3828  -222.1081 C0            1 RES     
   10337 C0         350.8232  -253.5346  -221.2752 C0            1 RES     
   10338 C0         350.0104  -254.3779  -220.2906 C0            1 RES     
   10339 H6         357.9063  -256.8144  -224.1051 H6            1 RES     
   10340 H6         359.3230  -257.8377  -223.9851 H6            1 RES     
   10341 H6         359.1962  -257.9186  -221.6476 H6            1 RES     
   10342 H6         358.6938  -255.0917  -222.8376 H6            1 RES     
   10343 H6         360.2252  -256.0240  -222.8823 H6            1 RES     
   10344 H6         360.4017  -255.8145  -220.3850 H6            1 RES     
   10345 H6         358.8612  -254.8878  -220.3725 H6            1 RES     
   10346 H6         360.6845  -253.3121  -220.2609 H6            1 RES     
   10347 H6         359.7920  -253.1065  -221.7869 H6            1 RES     
   10348 H6         362.2320  -252.8582  -222.1034 H6            1 RES     
   10349 H6         361.5841  -254.2050  -223.0798 H6            1 RES     
   10350 H6         362.4623  -255.8745  -221.4809 H6            1 RES     
   10351 H6         363.7453  -254.7849  -222.0999 H6            1 RES     
   10352 H6         362.3302  -254.5344  -219.3626 H6            1 RES     
   10353 H6         363.6386  -253.4453  -219.9489 H6            1 RES     
   10354 H6         364.3705  -255.1991  -218.3190 H6            1 RES     
   10355 H6         363.8164  -256.4896  -219.4461 H6            1 RES     
   10356 H6         365.5603  -255.6960  -221.1336 H6            1 RES     
   10357 H6         365.9999  -254.3659  -220.0004 H6            1 RES     
   10358 H6         366.7497  -256.0381  -218.3010 H6            1 RES     
   10359 H6         367.6450  -256.1497  -219.8582 H6            1 RES     
   10360 H6         365.3752  -258.0492  -218.9760 H6            1 RES     
   10361 H6         366.2552  -258.1000  -220.5582 H6            1 RES     
   10362 H6         367.1333  -258.4006  -219.0110 H6            1 RES     
   10363 H6         357.7177  -256.7897  -220.1487 H6            1 RES     
   10364 H6         356.8850  -258.0510  -220.9951 H6            1 RES     
   10365 H6         356.1076  -255.2573  -220.6303 H6            1 RES     
   10366 H6         356.4424  -255.4373  -222.3891 H6            1 RES     
   10367 H6         354.5611  -257.2403  -220.6658 H6            1 RES     
   10368 H6         355.0676  -257.4763  -222.3317 H6            1 RES     
   10369 H6         354.0312  -255.4557  -223.1252 H6            1 RES     
   10370 H6         352.9472  -256.7302  -222.5326 H6            1 RES     
   10371 H6         352.5637  -255.5949  -220.4456 H6            1 RES     
   10372 H6         353.6203  -254.2028  -220.9204 H6            1 RES     
   10373 H6         352.2261  -253.7456  -222.9090 H6            1 RES     
   10374 H6         351.1897  -255.1811  -222.6046 H6            1 RES     
   10375 H6         350.1029  -253.0566  -221.9751 H6            1 RES     
   10376 H6         351.3773  -252.7347  -220.7406 H6            1 RES     
   10377 H6         350.6607  -254.8572  -219.5325 H6            1 RES     
   10378 H6         349.2812  -253.7305  -219.7626 H6            1 RES     
   10379 H6         349.4471  -255.1671  -220.8371 H6            1 RES     
   10380 C0         357.8207  -259.2265  -225.6505 C0            1 RES     
   10381 C0         358.5113  -258.2290  -226.6870 C0            1 RES     
   10382 C0         358.1526  -258.7586  -228.1165 C0            1 RES     
   10383 C0         358.9286  -258.1110  -229.2811 C0            1 RES     
   10384 C0         358.5275  -258.6440  -230.6679 C0            1 RES     
   10385 C0         358.7355  -260.1528  -230.8900 C0            1 RES     
   10386 C0         360.1546  -260.6671  -230.5963 C0            1 RES     
   10387 C0         361.2451  -259.9593  -231.4198 C0            1 RES     
   10388 C0         362.6577  -260.4812  -231.1108 C0            1 RES     
   10389 C0         362.8671  -261.9404  -231.5536 C0            1 RES     
   10390 C0         364.3126  -262.4246  -231.3607 C0            1 RES     
   10391 C0         364.7350  -262.4940  -229.8931 C0            1 RES     
   10392 C0         358.4332  -256.6456  -226.6264 C0            1 RES     
   10393 C0         357.1060  -255.8765  -226.8814 C0            1 RES     
   10394 C0         356.5061  -255.2979  -225.5873 C0            1 RES     
   10395 C0         355.1726  -254.5802  -225.7163 C0            1 RES     
   10396 C0         355.1871  -253.2099  -226.3790 C0            1 RES     
   10397 C0         353.7685  -252.6224  -226.2328 C0            1 RES     
   10398 C0         353.6289  -251.1751  -226.7080 C0            1 RES     
   10399 C0         354.3988  -250.1957  -225.8209 C0            1 RES     
   10400 H6         356.9079  -259.6567  -226.1246 H6            1 RES     
   10401 H6         358.4862  -260.1193  -225.6476 H6            1 RES     
   10402 H6         359.6011  -258.4044  -226.5336 H6            1 RES     
   10403 H6         357.0647  -258.6159  -228.2940 H6            1 RES     
   10404 H6         358.3617  -259.8498  -228.1361 H6            1 RES     
   10405 H6         360.0181  -258.2478  -229.1174 H6            1 RES     
   10406 H6         358.7144  -257.0258  -229.3300 H6            1 RES     
   10407 H6         359.1138  -258.0842  -231.4275 H6            1 RES     
   10408 H6         357.4560  -258.4106  -230.8536 H6            1 RES     
   10409 H6         358.4765  -260.3799  -231.9473 H6            1 RES     
   10410 H6         358.0247  -260.7187  -230.2508 H6            1 RES     
   10411 H6         360.3771  -260.5464  -229.5146 H6            1 RES     
   10412 H6         360.1526  -261.7529  -230.8225 H6            1 RES     
   10413 H6         361.2412  -258.8785  -231.1668 H6            1 RES     
   10414 H6         361.0355  -260.0629  -232.5064 H6            1 RES     
   10415 H6         363.3804  -259.8439  -231.6654 H6            1 RES     
   10416 H6         362.8533  -260.3639  -230.0238 H6            1 RES     
   10417 H6         362.1883  -262.6246  -231.0040 H6            1 RES     
   10418 H6         362.6309  -262.0094  -232.6379 H6            1 RES     
   10419 H6         365.0094  -261.7624  -231.9192 H6            1 RES     
   10420 H6         364.3917  -263.4479  -231.7870 H6            1 RES     
   10421 H6         364.7282  -261.4898  -229.4233 H6            1 RES     
   10422 H6         364.0568  -263.1699  -229.3300 H6            1 RES     
   10423 H6         365.7685  -262.8946  -229.8280 H6            1 RES     
   10424 H6         359.1254  -256.3021  -227.4169 H6            1 RES     
   10425 H6         358.9847  -256.2140  -225.7702 H6            1 RES     
   10426 H6         357.3467  -254.9816  -227.4966 H6            1 RES     
   10427 H6         356.3932  -256.4966  -227.4617 H6            1 RES     
   10428 H6         357.2454  -254.6349  -225.0832 H6            1 RES     
   10429 H6         356.2620  -256.1042  -224.9048 H6            1 RES     
   10430 H6         354.4265  -255.2515  -226.1944 H6            1 RES     
   10431 H6         354.8621  -254.3755  -224.6784 H6            1 RES     
   10432 H6         355.9275  -252.5811  -225.8407 H6            1 RES     
   10433 H6         355.4774  -253.2837  -227.4477 H6            1 RES     
   10434 H6         353.0696  -253.2608  -226.8169 H6            1 RES     
   10435 H6         353.4440  -252.6568  -225.1672 H6            1 RES     
   10436 H6         352.5513  -250.9080  -226.6420 H6            1 RES     
   10437 H6         353.9523  -251.0871  -227.7642 H6            1 RES     
   10438 H6         355.4908  -250.3773  -225.8692 H6            1 RES     
   10439 H6         354.2038  -249.1592  -226.1647 H6            1 RES     
   10440 H6         354.0609  -250.2850  -224.7651 H6            1 RES     
   10441 C0         364.9638  -267.7700  -218.2268 C0            1 RES     
   10442 C1         363.5658  -267.2087  -218.5677 C1            1 RES     
   10443 C1         362.5764  -268.1109  -218.3388 C1            1 RES     
   10444 S2         361.0574  -267.5666  -218.7849 S2            1 RES     
   10445 C1         361.6802  -266.0900  -219.3527 C1            1 RES     
   10446 C1         363.0689  -266.0494  -219.1863 C1            1 RES     
   10447 C1         363.1550  -269.3147  -217.8818 C1            1 RES     
   10448 C1         364.5098  -269.1904  -217.8871 C1            1 RES     
   10449 C1         365.1511  -270.3856  -217.5849 C1            1 RES     
   10450 C1         364.2128  -271.3969  -217.3184 C1            1 RES     
   10451 S2         362.6179  -270.8339  -217.4695 S2            1 RES     
   10452 H3         363.6553  -265.2288  -219.5539 H3            1 RES     
   10453 H3         366.2263  -270.5176  -217.5639 H3            1 RES     
   10454 N4         364.4833  -274.7257  -215.6167 N4            1 RES     
   10455 C1         364.2388  -273.3981  -215.8212 C1            1 RES     
   10456 C1         364.5095  -272.8024  -217.0653 C1            1 RES     
   10457 C1         365.0116  -273.6105  -218.0869 C1            1 RES     
   10458 N4         365.2611  -273.1748  -219.3484 N4            1 RES     
   10459 S2         365.7630  -274.5566  -220.1037 S2            1 RES     
   10460 N4         365.6899  -275.7055  -218.9150 N4            1 RES     
   10461 C1         365.2384  -274.9904  -217.8551 C1            1 RES     
   10462 C1         364.9796  -275.5304  -216.5980 C1            1 RES     
   10463 H5         363.8393  -272.7988  -215.0077 H5            1 RES     
   10464 C0         365.7517  -267.1934  -216.9981 C0            1 RES     
   10465 C0         365.4957  -267.3618  -215.4528 C0            1 RES     
   10466 C0         366.5553  -266.4350  -214.7595 C0            1 RES     
   10467 C0         366.5915  -266.4511  -213.2263 C0            1 RES     
   10468 C0         367.6361  -265.4642  -212.6539 C0            1 RES     
   10469 C0         369.1072  -265.7493  -213.0289 C0            1 RES     
   10470 C0         369.6026  -267.1636  -212.6790 C0            1 RES     
   10471 C0         369.4586  -267.5005  -211.1842 C0            1 RES     
   10472 C0         369.9013  -268.9316  -210.8474 C0            1 RES     
   10473 C0         371.4113  -269.1577  -211.0327 C0            1 RES     
   10474 C0         371.8613  -270.5572  -210.5841 C0            1 RES     
   10475 C0         371.2807  -271.6810  -211.4434 C0            1 RES     
   10476 C0         364.0579  -267.1409  -214.8792 C0            1 RES     
   10477 C0         363.4142  -265.7226  -214.9605 C0            1 RES     
   10478 C0         362.1124  -265.8140  -215.7624 C0            1 RES     
   10479 C0         361.4788  -264.5145  -216.2509 C0            1 RES     
   10480 C0         360.6697  -263.7298  -215.2286 C0            1 RES     
   10481 C0         360.0864  -262.4916  -215.9413 C0            1 RES     
   10482 C0         359.0870  -261.6937  -215.1006 C0            1 RES     
   10483 C0         357.7882  -262.4649  -214.8561 C0            1 RES     
   10484 H6         365.7940  -266.1435  -217.1382 H6            1 RES     
   10485 H6         366.7849  -267.5880  -217.1272 H6            1 RES     
   10486 H6         365.7366  -268.4196  -215.2046 H6            1 RES     
   10487 H6         366.3813  -265.3821  -215.0718 H6            1 RES     
   10488 H6         367.5595  -266.7331  -215.1299 H6            1 RES     
   10489 H6         366.7836  -267.4802  -212.8603 H6            1 RES     
   10490 H6         365.6087  -266.1197  -212.8345 H6            1 RES     
   10491 H6         367.5417  -265.4650  -211.5483 H6            1 RES     
   10492 H6         367.3893  -264.4328  -212.9900 H6            1 RES     
   10493 H6         369.7467  -265.0027  -212.5074 H6            1 RES     
   10494 H6         369.2531  -265.5913  -214.1189 H6            1 RES     
   10495 H6         369.0398  -267.9080  -213.2809 H6            1 RES     
   10496 H6         370.6694  -267.2228  -212.9790 H6            1 RES     
   10497 H6         368.3876  -267.4344  -210.9038 H6            1 RES     
   10498 H6         370.0270  -266.7702  -210.5675 H6            1 RES     
   10499 H6         369.6523  -269.1170  -209.7797 H6            1 RES     
   10500 H6         369.3139  -269.6390  -211.4696 H6            1 RES     
   10501 H6         371.7088  -269.0089  -212.0914 H6            1 RES     
   10502 H6         371.9512  -268.4127  -210.4085 H6            1 RES     
   10503 H6         371.5833  -270.7196  -209.5198 H6            1 RES     
   10504 H6         372.9689  -270.6056  -210.6627 H6            1 RES     
   10505 H6         370.1755  -271.7199  -211.3655 H6            1 RES     
   10506 H6         371.5707  -271.5391  -212.5062 H6            1 RES     
   10507 H6         371.6809  -272.6554  -211.0931 H6            1 RES     
   10508 H6         364.0787  -267.4211  -213.8043 H6            1 RES     
   10509 H6         363.3880  -267.9129  -215.3148 H6            1 RES     
   10510 H6         363.1698  -265.3408  -213.9439 H6            1 RES     
   10511 H6         364.1189  -265.0109  -215.4366 H6            1 RES     
   10512 H6         361.3638  -266.4750  -215.2770 H6            1 RES     
   10513 H6         362.4173  -266.2885  -216.6708 H6            1 RES     
   10514 H6         362.2511  -263.8889  -216.7049 H6            1 RES     
   10515 H6         360.7685  -264.7977  -217.0608 H6            1 RES     
   10516 H6         359.8588  -264.3980  -214.8689 H6            1 RES     
   10517 H6         361.2968  -263.4184  -214.3666 H6            1 RES     
   10518 H6         360.9337  -261.8251  -216.2205 H6            1 RES     
   10519 H6         359.5710  -262.7907  -216.8824 H6            1 RES     
   10520 H6         358.8245  -260.7750  -215.6698 H6            1 RES     
   10521 H6         359.5492  -261.3906  -214.1376 H6            1 RES     
   10522 H6         357.9651  -263.3793  -214.2561 H6            1 RES     
   10523 H6         357.0735  -261.8211  -214.3044 H6            1 RES     
   10524 H6         357.3250  -262.7513  -215.8267 H6            1 RES     
   10525 C0         365.7896  -267.6615  -219.5692 C0            1 RES     
   10526 C0         367.0337  -266.6945  -219.8201 C0            1 RES     
   10527 C0         367.1571  -266.5262  -221.3722 C0            1 RES     
   10528 C0         368.4503  -265.8484  -221.8683 C0            1 RES     
   10529 C0         368.5183  -265.6825  -223.3967 C0            1 RES     
   10530 C0         368.4569  -266.9852  -224.2141 C0            1 RES     
   10531 C0         369.4945  -268.0510  -223.8241 C0            1 RES     
   10532 C0         370.9479  -267.5543  -223.9197 C0            1 RES     
   10533 C0         371.9721  -268.6295  -223.5219 C0            1 RES     
   10534 C0         372.0095  -269.8137  -224.5045 C0            1 RES     
   10535 C0         373.1171  -270.8282  -224.1799 C0            1 RES     
   10536 C0         372.9029  -271.5503  -222.8496 C0            1 RES     
   10537 C0         367.2910  -265.3190  -219.0726 C0            1 RES     
   10538 C0         366.3767  -264.0802  -219.2901 C0            1 RES     
   10539 C0         365.4615  -263.8080  -218.0828 C0            1 RES     
   10540 C0         364.4807  -262.6549  -218.2178 C0            1 RES     
   10541 C0         365.0573  -261.2474  -218.1590 C0            1 RES     
   10542 C0         363.8637  -260.2707  -218.1407 C0            1 RES     
   10543 C0         364.2462  -258.8049  -217.9276 C0            1 RES     
   10544 C0         364.8024  -258.5477  -216.5263 C0            1 RES     
   10545 H6         365.0654  -267.5348  -220.4073 H6            1 RES     
   10546 H6         366.1847  -268.6776  -219.7960 H6            1 RES     
   10547 H6         367.9076  -267.2983  -219.4828 H6            1 RES     
   10548 H6         366.2872  -265.9431  -221.7443 H6            1 RES     
   10549 H6         367.1097  -267.5387  -221.8278 H6            1 RES     
   10550 H6         369.3284  -266.4224  -221.5049 H6            1 RES     
   10551 H6         368.5187  -264.8156  -221.4752 H6            1 RES     
   10552 H6         369.4638  -265.1510  -223.6371 H6            1 RES     
   10553 H6         367.6863  -265.0241  -223.7305 H6            1 RES     
   10554 H6         368.5902  -266.7209  -225.2859 H6            1 RES     
   10555 H6         367.4461  -267.4347  -224.1118 H6            1 RES     
   10556 H6         369.2954  -268.4023  -222.7891 H6            1 RES     
   10557 H6         369.3409  -268.9100  -224.5087 H6            1 RES     
   10558 H6         371.0846  -266.7067  -223.2161 H6            1 RES     
   10559 H6         371.1643  -267.1913  -224.9477 H6            1 RES     
   10560 H6         372.9761  -268.1519  -223.5166 H6            1 RES     
   10561 H6         371.7462  -268.9757  -222.4909 H6            1 RES     
   10562 H6         371.0363  -270.3460  -224.5237 H6            1 RES     
   10563 H6         372.2088  -269.4118  -225.5218 H6            1 RES     
   10564 H6         374.1049  -270.3184  -224.1735 H6            1 RES     
   10565 H6         373.1282  -271.5937  -224.9855 H6            1 RES     
   10566 H6         372.9350  -270.8428  -221.9966 H6            1 RES     
   10567 H6         371.9267  -272.0804  -222.8533 H6            1 RES     
   10568 H6         373.7112  -272.2975  -222.7042 H6            1 RES     
   10569 H6         368.2953  -265.0025  -219.4094 H6            1 RES     
   10570 H6         367.5431  -265.4443  -218.0028 H6            1 RES     
   10571 H6         367.0312  -263.1826  -219.3465 H6            1 RES     
   10572 H6         365.8307  -264.1541  -220.2524 H6            1 RES     
   10573 H6         366.0706  -263.6804  -217.1592 H6            1 RES     
   10574 H6         364.7972  -264.6511  -217.9299 H6            1 RES     
   10575 H6         363.8536  -262.7962  -219.1248 H6            1 RES     
   10576 H6         363.8417  -262.7232  -217.3221 H6            1 RES     
   10577 H6         365.6464  -261.1615  -217.2215 H6            1 RES     
   10578 H6         365.7195  -261.0479  -219.0271 H6            1 RES     
   10579 H6         363.3275  -260.3641  -219.1107 H6            1 RES     
   10580 H6         363.1483  -260.5500  -217.3332 H6            1 RES     
   10581 H6         363.3175  -258.2023  -218.0332 H6            1 RES     
   10582 H6         364.9688  -258.4823  -218.7032 H6            1 RES     
   10583 H6         365.7560  -259.0880  -216.3632 H6            1 RES     
   10584 H6         364.9929  -257.4620  -216.4016 H6            1 RES     
   10585 H6         364.0667  -258.8661  -215.7555 H6            1 RES     
   10586 C0         367.3606  -280.2255  -215.2327 C0            1 RES     
   10587 C1         366.3707  -279.1106  -215.6362 C1            1 RES     
   10588 C1         365.1977  -279.6066  -216.1088 C1            1 RES     
   10589 S2         364.1373  -278.4258  -216.6413 S2            1 RES     
   10590 C1         365.2433  -277.1820  -216.2938 C1            1 RES     
   10591 C1         366.4267  -277.7132  -215.7693 C1            1 RES     
   10592 C1         365.2682  -281.0165  -216.1121 C1            1 RES     
   10593 C1         366.5073  -281.4036  -215.7049 C1            1 RES     
   10594 C1         366.6965  -282.7756  -215.8198 C1            1 RES     
   10595 C1         365.5302  -283.3976  -216.2964 C1            1 RES     
   10596 S2         364.2904  -282.2747  -216.5889 S2            1 RES     
   10597 H3         367.2762  -277.0921  -215.5575 H3            1 RES     
   10598 H3         367.6188  -283.2908  -215.5796 H3            1 RES     
   10599 N4         364.3664  -286.9607  -216.2810 N4            1 RES     
   10600 C1         364.5225  -285.6535  -215.9188 C1            1 RES     
   10601 C1         365.3843  -284.8079  -216.6387 C1            1 RES     
   10602 C1         366.0544  -285.3368  -217.7433 C1            1 RES     
   10603 N4         366.8686  -284.6156  -218.5560 N4            1 RES     
   10604 S2         367.3069  -285.7319  -219.6932 S2            1 RES     
   10605 N4         366.5207  -287.1087  -219.2190 N4            1 RES     
   10606 C1         365.8602  -286.6920  -218.1105 C1            1 RES     
   10607 C1         365.0162  -287.4982  -217.3513 C1            1 RES     
   10608 H5         363.9795  -285.2707  -215.0591 H5            1 RES     
   10609 C0         367.7097  -280.4409  -213.7180 C0            1 RES     
   10610 C0         366.8375  -281.0269  -212.5442 C0            1 RES     
   10611 C0         367.7167  -280.8542  -211.2560 C0            1 RES     
   10612 C0         367.1438  -281.4115  -209.9469 C0            1 RES     
   10613 C0         368.0704  -281.1396  -208.7385 C0            1 RES     
   10614 C0         369.4677  -281.7952  -208.8012 C0            1 RES     
   10615 C0         369.4593  -283.3194  -209.0128 C0            1 RES     
   10616 C0         368.6696  -284.0744  -207.9289 C0            1 RES     
   10617 C0         368.6156  -285.5893  -208.1731 C0            1 RES     
   10618 C0         369.9862  -286.2738  -208.0372 C0            1 RES     
   10619 C0         369.9018  -287.8028  -208.1700 C0            1 RES     
   10620 C0         369.4717  -288.2637  -209.5631 C0            1 RES     
   10621 C0         365.3778  -280.5077  -212.3325 C0            1 RES     
   10622 C0         365.1492  -279.0185  -211.9291 C0            1 RES     
   10623 C0         364.2815  -278.3433  -212.9954 C0            1 RES     
   10624 C0         364.1954  -276.8197  -212.9901 C0            1 RES     
   10625 C0         363.2459  -276.1988  -211.9760 C0            1 RES     
   10626 C0         363.2791  -274.6691  -212.1763 C0            1 RES     
   10627 C0         362.2338  -273.9045  -211.3609 C0            1 RES     
   10628 C0         360.8076  -274.1793  -211.8421 C0            1 RES     
   10629 H6         368.0350  -279.5010  -213.3512 H6            1 RES     
   10630 H6         368.5952  -281.1156  -213.7354 H6            1 RES     
   10631 H6         366.7207  -282.1148  -212.7480 H6            1 RES     
   10632 H6         367.9172  -279.7729  -211.0914 H6            1 RES     
   10633 H6         368.6925  -281.3515  -211.4431 H6            1 RES     
   10634 H6         366.9437  -282.4974  -210.0502 H6            1 RES     
   10635 H6         366.1862  -280.9006  -209.7209 H6            1 RES     
   10636 H6         367.5521  -281.4880  -207.8213 H6            1 RES     
   10637 H6         368.2105  -280.0419  -208.6231 H6            1 RES     
   10638 H6         369.9994  -281.5648  -207.8511 H6            1 RES     
   10639 H6         370.0606  -281.3352  -209.6204 H6            1 RES     
   10640 H6         369.0281  -283.5481  -210.0103 H6            1 RES     
   10641 H6         370.5163  -283.6576  -209.0154 H6            1 RES     
   10642 H6         367.6181  -283.7219  -207.9410 H6            1 RES     
   10643 H6         369.0969  -283.8651  -206.9238 H6            1 RES     
   10644 H6         367.9333  -286.0274  -207.4123 H6            1 RES     
   10645 H6         368.1786  -285.7701  -209.1776 H6            1 RES     
   10646 H6         370.7001  -285.8882  -208.7942 H6            1 RES     
   10647 H6         370.3883  -286.0439  -207.0265 H6            1 RES     
   10648 H6         369.2001  -288.2092  -207.4092 H6            1 RES     
   10649 H6         370.9107  -288.2231  -207.9683 H6            1 RES     
   10650 H6         368.4459  -287.9193  -209.8043 H6            1 RES     
   10651 H6         370.1791  -287.8799  -210.3287 H6            1 RES     
   10652 H6         369.4756  -289.3732  -209.6004 H6            1 RES     
   10653 H6         364.9125  -281.1290  -211.5376 H6            1 RES     
   10654 H6         364.7795  -280.7785  -213.2288 H6            1 RES     
   10655 H6         364.6167  -278.9507  -210.9539 H6            1 RES     
   10656 H6         366.1228  -278.4973  -211.8280 H6            1 RES     
   10657 H6         363.2763  -278.8079  -213.0771 H6            1 RES     
   10658 H6         364.8050  -278.5508  -213.9044 H6            1 RES     
   10659 H6         365.2017  -276.4053  -212.8914 H6            1 RES     
   10660 H6         363.8164  -276.5240  -213.9949 H6            1 RES     
   10661 H6         362.2328  -276.6034  -212.1845 H6            1 RES     
   10662 H6         363.5365  -276.4576  -210.9359 H6            1 RES     
   10663 H6         364.2928  -274.3072  -211.8904 H6            1 RES     
   10664 H6         363.1220  -274.4134  -213.2490 H6            1 RES     
   10665 H6         362.4264  -272.8178  -211.4993 H6            1 RES     
   10666 H6         362.3357  -274.1449  -210.2818 H6            1 RES     
   10667 H6         360.5275  -275.2414  -211.6981 H6            1 RES     
   10668 H6         360.0957  -273.5520  -211.2682 H6            1 RES     
   10669 H6         360.7114  -273.9215  -212.9206 H6            1 RES     
   10670 C0         368.6485  -279.9702  -216.1112 C0            1 RES     
   10671 C0         370.0720  -279.5038  -215.5612 C0            1 RES     
   10672 C0         370.8284  -278.8671  -216.7756 C0            1 RES     
   10673 C0         372.3277  -278.5838  -216.5526 C0            1 RES     
   10674 C0         373.0248  -277.9369  -217.7624 C0            1 RES     
   10675 C0         373.0021  -278.7572  -219.0645 C0            1 RES     
   10676 C0         373.5393  -280.1928  -218.9421 C0            1 RES     
   10677 C0         374.9843  -280.2632  -218.4176 C0            1 RES     
   10678 C0         375.5044  -281.7047  -218.2962 C0            1 RES     
   10679 C0         375.6609  -282.4016  -219.6596 C0            1 RES     
   10680 C0         376.2975  -283.7960  -219.5514 C0            1 RES     
   10681 C0         375.4244  -284.8013  -218.8004 C0            1 RES     
   10682 C0         370.3131  -278.6683  -214.2343 C0            1 RES     
   10683 C0         369.8567  -277.1880  -214.0991 C0            1 RES     
   10684 C0         368.6262  -277.0351  -213.1870 C0            1 RES     
   10685 C0         368.0591  -275.6330  -213.0377 C0            1 RES     
   10686 C0         368.8626  -274.6487  -212.1995 C0            1 RES     
   10687 C0         368.0062  -273.3740  -212.0552 C0            1 RES     
   10688 C0         368.5889  -272.3216  -211.1101 C0            1 RES     
   10689 C0         368.5926  -272.7877  -209.6534 C0            1 RES     
   10690 H6         368.3590  -279.3056  -216.9583 H6            1 RES     
   10691 H6         368.8651  -280.9143  -216.6605 H6            1 RES     
   10692 H6         370.5859  -280.4623  -215.3176 H6            1 RES     
   10693 H6         370.3270  -277.9159  -217.0572 H6            1 RES     
   10694 H6         370.7405  -279.5668  -217.6344 H6            1 RES     
   10695 H6         372.8418  -279.5270  -216.2721 H6            1 RES     
   10696 H6         372.4633  -277.8526  -215.7323 H6            1 RES     
   10697 H6         374.0810  -277.7411  -217.4788 H6            1 RES     
   10698 H6         372.5589  -276.9479  -217.9672 H6            1 RES     
   10699 H6         373.6002  -278.2071  -219.8236 H6            1 RES     
   10700 H6         371.9600  -278.8105  -219.4459 H6            1 RES     
   10701 H6         372.8776  -280.7812  -218.2711 H6            1 RES     
   10702 H6         373.4805  -280.6419  -219.9545 H6            1 RES     
   10703 H6         375.0181  -279.8243  -217.3985 H6            1 RES     
   10704 H6         375.6613  -279.6735  -219.0728 H6            1 RES     
   10705 H6         376.5044  -281.6618  -217.8123 H6            1 RES     
   10706 H6         374.8215  -282.2775  -217.6334 H6            1 RES     
   10707 H6         374.6817  -282.4983  -220.1722 H6            1 RES     
   10708 H6         376.3271  -281.7757  -220.2927 H6            1 RES     
   10709 H6         377.2899  -283.7197  -219.0562 H6            1 RES     
   10710 H6         376.4539  -284.1829  -220.5815 H6            1 RES     
   10711 H6         375.2750  -284.4968  -217.7449 H6            1 RES     
   10712 H6         374.4369  -284.9003  -219.2995 H6            1 RES     
   10713 H6         375.9234  -285.7932  -218.8025 H6            1 RES     
   10714 H6         371.4119  -278.6465  -214.1147 H6            1 RES     
   10715 H6         370.0906  -279.2388  -213.3130 H6            1 RES     
   10716 H6         370.6620  -276.6330  -213.5693 H6            1 RES     
   10717 H6         369.7304  -276.7191  -215.0959 H6            1 RES     
   10718 H6         368.8359  -277.4674  -212.1822 H6            1 RES     
   10719 H6         367.7863  -277.5729  -213.6124 H6            1 RES     
   10720 H6         367.8238  -275.2117  -214.0392 H6            1 RES     
   10721 H6         367.1220  -275.7676  -212.4728 H6            1 RES     
   10722 H6         369.0396  -275.1145  -211.2070 H6            1 RES     
   10723 H6         369.8386  -274.4188  -212.6755 H6            1 RES     
   10724 H6         367.8875  -272.9228  -213.0649 H6            1 RES     
   10725 H6         366.9888  -273.6324  -211.6809 H6            1 RES     
   10726 H6         367.9347  -271.4243  -211.1711 H6            1 RES     
   10727 H6         369.6098  -272.0395  -211.4356 H6            1 RES     
   10728 H6         369.2601  -273.6602  -209.5087 H6            1 RES     
   10729 H6         368.9542  -271.9627  -209.0060 H6            1 RES     
   10730 H6         367.5627  -273.0597  -209.3335 H6            1 RES     
   10731 C0         365.5659  -292.8985  -217.6871 C0            1 RES     
   10732 C1         365.0875  -291.4333  -217.7863 C1            1 RES     
   10733 C1         364.1159  -291.2686  -218.7212 C1            1 RES     
   10734 S2         363.6399  -289.6759  -218.9190 S2            1 RES     
   10735 C1         364.7664  -289.1268  -217.7700 C1            1 RES     
   10736 C1         365.4993  -290.2006  -217.2528 C1            1 RES     
   10737 C1         363.8678  -292.5112  -219.3433 C1            1 RES     
   10738 C1         364.7284  -293.4403  -218.8464 C1            1 RES     
   10739 C1         364.6384  -294.6551  -219.5154 C1            1 RES     
   10740 C1         363.6464  -294.6003  -220.5090 C1            1 RES     
   10741 S2         362.9032  -293.0750  -220.5755 S2            1 RES     
   10742 H3         366.3122  -290.0485  -216.5684 H3            1 RES     
   10743 H3         365.2534  -295.5211  -219.3017 H3            1 RES     
   10744 N4         361.8120  -297.2573  -222.4132 N4            1 RES     
   10745 C1         362.0989  -296.3105  -221.4722 C1            1 RES     
   10746 C1         363.3380  -295.6469  -221.4771 C1            1 RES     
   10747 C1         364.2525  -295.9673  -222.4820 C1            1 RES     
   10748 N4         365.4580  -295.3616  -222.6348 N4            1 RES     
   10749 S2         366.0482  -296.0933  -223.9942 S2            1 RES     
   10750 N4         364.8553  -297.1585  -224.4192 N4            1 RES     
   10751 C1         363.9230  -296.9399  -223.4591 C1            1 RES     
   10752 C1         362.6930  -297.5896  -223.3981 C1            1 RES     
   10753 H5         361.3616  -296.0781  -220.7086 H5            1 RES     
   10754 C0         365.2355  -293.7362  -216.4018 C0            1 RES     
   10755 C0         363.8664  -294.3287  -215.8953 C0            1 RES     
   10756 C0         364.1841  -294.9470  -214.4885 C0            1 RES     
   10757 C0         363.0356  -295.6712  -213.7752 C0            1 RES     
   10758 C0         363.4489  -296.1936  -212.3791 C0            1 RES     
   10759 C0         364.5756  -297.2501  -212.3625 C0            1 RES     
   10760 C0         364.3134  -298.4906  -213.2347 C0            1 RES     
   10761 C0         363.0159  -299.2283  -212.8596 C0            1 RES     
   10762 C0         362.7279  -300.4327  -213.7673 C0            1 RES     
   10763 C0         363.7465  -301.5731  -213.6016 C0            1 RES     
   10764 C0         363.3845  -302.8171  -214.4285 C0            1 RES     
   10765 C0         363.4451  -302.5760  -215.9373 C0            1 RES     
   10766 C0         362.5953  -293.4186  -215.8630 C0            1 RES     
   10767 C0         362.5629  -292.1879  -214.9053 C0            1 RES     
   10768 C0         362.3563  -290.9181  -215.7364 C0            1 RES     
   10769 C0         362.6149  -289.5722  -215.0651 C0            1 RES     
   10770 C0         361.5069  -289.0387  -214.1690 C0            1 RES     
   10771 C0         361.9541  -287.6601  -213.6390 C0            1 RES     
   10772 C0         360.8704  -286.8986  -212.8722 C0            1 RES     
   10773 C0         359.7251  -286.4471  -213.7809 C0            1 RES     
   10774 H6         365.5902  -293.1702  -215.5787 H6            1 RES     
   10775 H6         365.8834  -294.6374  -216.4897 H6            1 RES     
   10776 H6         363.6012  -295.1552  -216.5918 H6            1 RES     
   10777 H6         364.5381  -294.1433  -213.8065 H6            1 RES     
   10778 H6         365.0185  -295.6694  -214.6170 H6            1 RES     
   10779 H6         362.6569  -296.5002  -214.4070 H6            1 RES     
   10780 H6         362.2052  -294.9572  -213.6026 H6            1 RES     
   10781 H6         362.5491  -296.6218  -211.8908 H6            1 RES     
   10782 H6         363.7718  -295.3366  -211.7474 H6            1 RES     
   10783 H6         364.7285  -297.5745  -211.3090 H6            1 RES     
   10784 H6         365.5283  -296.7868  -212.6971 H6            1 RES     
   10785 H6         364.2692  -298.1853  -214.3014 H6            1 RES     
   10786 H6         365.1831  -299.1691  -213.1126 H6            1 RES     
   10787 H6         362.1600  -298.5344  -212.9863 H6            1 RES     
   10788 H6         363.0493  -299.5515  -211.7961 H6            1 RES     
   10789 H6         361.7232  -300.8242  -213.4960 H6            1 RES     
   10790 H6         362.6919  -300.0815  -214.8199 H6            1 RES     
   10791 H6         364.7663  -301.2398  -213.8850 H6            1 RES     
   10792 H6         363.7598  -301.8713  -212.5305 H6            1 RES     
   10793 H6         362.3695  -303.1741  -214.1481 H6            1 RES     
   10794 H6         364.1129  -303.6195  -214.1821 H6            1 RES     
   10795 H6         362.7002  -301.8193  -216.2563 H6            1 RES     
   10796 H6         364.4619  -302.2389  -216.2307 H6            1 RES     
   10797 H6         363.2174  -303.5230  -216.4701 H6            1 RES     
   10798 H6         361.7304  -294.0597  -215.5885 H6            1 RES     
   10799 H6         362.3529  -293.1235  -216.9064 H6            1 RES     
   10800 H6         361.7199  -292.2715  -214.1831 H6            1 RES     
   10801 H6         363.5079  -292.1294  -214.3279 H6            1 RES     
   10802 H6         361.3880  -290.9229  -216.2799 H6            1 RES     
   10803 H6         363.1343  -290.9748  -216.4676 H6            1 RES     
   10804 H6         363.5663  -289.6170  -214.5295 H6            1 RES     
   10805 H6         362.7363  -288.8306  -215.8872 H6            1 RES     
   10806 H6         360.5946  -288.9449  -214.7955 H6            1 RES     
   10807 H6         361.3008  -289.7282  -213.3233 H6            1 RES     
   10808 H6         362.8270  -287.8177  -212.9656 H6            1 RES     
   10809 H6         362.2914  -287.0107  -214.4787 H6            1 RES     
   10810 H6         361.3374  -285.9825  -212.4480 H6            1 RES     
   10811 H6         360.4847  -287.5167  -212.0344 H6            1 RES     
   10812 H6         359.1832  -287.3118  -214.2121 H6            1 RES     
   10813 H6         359.0033  -285.8428  -213.1947 H6            1 RES     
   10814 H6         360.1195  -285.8162  -214.6086 H6            1 RES     
   10815 C0         367.1170  -292.8461  -217.9824 C0            1 RES     
   10816 C0         368.2752  -293.1548  -216.9292 C0            1 RES     
   10817 C0         369.5680  -292.4620  -217.4778 C0            1 RES     
   10818 C0         370.8818  -292.8437  -216.7662 C0            1 RES     
   10819 C0         372.1221  -292.1220  -217.3218 C0            1 RES     
   10820 C0         372.4310  -292.3720  -218.8088 C0            1 RES     
   10821 C0         372.5445  -293.8513  -219.2130 C0            1 RES     
   10822 C0         373.6131  -294.6229  -218.4186 C0            1 RES     
   10823 C0         373.7104  -296.1006  -218.8309 C0            1 RES     
   10824 C0         374.2307  -296.2886  -220.2673 C0            1 RES     
   10825 C0         374.4476  -297.7638  -220.6389 C0            1 RES     
   10826 C0         373.1507  -298.5720  -220.6826 C0            1 RES     
   10827 C0         368.1549  -292.9802  -215.3570 C0            1 RES     
   10828 C0         368.0224  -291.5810  -214.6918 C0            1 RES     
   10829 C0         366.5999  -291.3135  -214.1679 C0            1 RES     
   10830 C0         366.3457  -289.9461  -213.5552 C0            1 RES     
   10831 C0         366.9522  -289.6800  -212.1846 C0            1 RES     
   10832 C0         366.4135  -288.3150  -211.7096 C0            1 RES     
   10833 C0         366.7959  -287.9462  -210.2751 C0            1 RES     
   10834 C0         366.1244  -288.8538  -209.2434 C0            1 RES     
   10835 H6         367.3381  -291.8730  -218.4797 H6            1 RES     
   10836 H6         367.3167  -293.5510  -218.8210 H6            1 RES     
   10837 H6         368.4261  -294.2553  -217.0204 H6            1 RES     
   10838 H6         369.4417  -291.3593  -217.4190 H6            1 RES     
   10839 H6         369.6716  -292.7373  -218.5494 H6            1 RES     
   10840 H6         371.0217  -293.9438  -216.8190 H6            1 RES     
   10841 H6         370.8429  -292.5453  -215.7006 H6            1 RES     
   10842 H6         372.9971  -292.4378  -216.7144 H6            1 RES     
   10843 H6         372.0057  -291.0262  -217.1712 H6            1 RES     
   10844 H6         373.3847  -291.8535  -219.0500 H6            1 RES     
   10845 H6         371.6386  -291.9045  -219.4313 H6            1 RES     
   10846 H6         371.5602  -294.3492  -219.0808 H6            1 RES     
   10847 H6         372.7898  -293.8676  -220.2945 H6            1 RES     
   10848 H6         373.3406  -294.6085  -217.3426 H6            1 RES     
   10849 H6         374.6052  -294.1349  -218.5327 H6            1 RES     
   10850 H6         374.4227  -296.5973  -218.1367 H6            1 RES     
   10851 H6         372.7138  -296.5744  -218.7042 H6            1 RES     
   10852 H6         373.5362  -295.8362  -221.0048 H6            1 RES     
   10853 H6         375.2125  -295.7731  -220.3489 H6            1 RES     
   10854 H6         375.1561  -298.2326  -219.9219 H6            1 RES     
   10855 H6         374.9057  -297.7991  -221.6508 H6            1 RES     
   10856 H6         372.6707  -298.6192  -219.6844 H6            1 RES     
   10857 H6         372.4431  -298.1232  -221.4119 H6            1 RES     
   10858 H6         373.3772  -299.6109  -221.0022 H6            1 RES     
   10859 H6         369.0938  -293.4052  -214.9569 H6            1 RES     
   10860 H6         367.4684  -293.7101  -214.8882 H6            1 RES     
   10861 H6         368.6564  -291.5797  -213.7778 H6            1 RES     
   10862 H6         368.4046  -290.7850  -215.3624 H6            1 RES     
   10863 H6         366.2971  -292.1111  -213.4521 H6            1 RES     
   10864 H6         365.8979  -291.3233  -214.9942 H6            1 RES     
   10865 H6         366.6220  -289.1497  -214.2799 H6            1 RES     
   10866 H6         365.2577  -289.9144  -213.3804 H6            1 RES     
   10867 H6         366.6176  -290.4904  -211.5030 H6            1 RES     
   10868 H6         368.0612  -289.6744  -212.2303 H6            1 RES     
   10869 H6         366.8036  -287.5327  -212.3973 H6            1 RES     
   10870 H6         365.3011  -288.2949  -211.7744 H6            1 RES     
   10871 H6         366.4347  -286.9102  -210.0927 H6            1 RES     
   10872 H6         367.8975  -287.9639  -210.1570 H6            1 RES     
   10873 H6         366.4703  -289.9021  -209.3396 H6            1 RES     
   10874 H6         366.3760  -288.4975  -208.2234 H6            1 RES     
   10875 H6         365.0193  -288.8221  -209.3639 H6            1 RES     
   10876 C0         362.1191  -302.3400  -225.9833 C0            1 RES     
   10877 C1         362.0555  -300.8646  -225.5305 C1            1 RES     
   10878 C1         361.5915  -300.0432  -226.5077 C1            1 RES     
   10879 S2         361.5970  -298.4245  -226.0807 S2            1 RES     
   10880 C1         362.2735  -298.7602  -224.5574 C1            1 RES     
   10881 C1         362.4869  -300.1351  -224.4101 C1            1 RES     
   10882 C1         361.3388  -300.8106  -227.6653 C1            1 RES     
   10883 C1         361.7062  -302.1003  -227.4363 C1            1 RES     
   10884 C1         361.6193  -302.8854  -228.5797 C1            1 RES     
   10885 C1         361.1357  -302.1311  -229.6621 C1            1 RES     
   10886 S2         360.8362  -300.5181  -229.2237 S2            1 RES     
   10887 H3         362.9778  -300.5382  -223.5447 H3            1 RES     
   10888 H3         361.8925  -303.9327  -228.6281 H3            1 RES     
   10889 N4         359.6566  -303.0959  -232.9684 N4            1 RES     
   10890 C1         359.7532  -302.7085  -231.6627 C1            1 RES     
   10891 C1         361.0083  -302.5875  -231.0416 C1            1 RES     
   10892 C1         362.1481  -302.8518  -231.8032 C1            1 RES     
   10893 N4         363.4184  -302.7174  -231.3431 N4            1 RES     
   10894 S2         364.3166  -303.0957  -232.6780 S2            1 RES     
   10895 N4         363.1823  -303.4319  -233.8351 N4            1 RES     
   10896 C1         362.0218  -303.2334  -233.1625 C1            1 RES     
   10897 C1         360.7559  -303.3652  -233.7272 C1            1 RES     
   10898 H5         358.8469  -302.5016  -231.1002 H5            1 RES     
   10899 C0         361.1341  -303.3869  -225.3535 C0            1 RES     
   10900 C0         359.5820  -303.5723  -225.5491 C0            1 RES     
   10901 C0         359.1766  -304.7092  -224.5463 C0            1 RES     
   10902 C0         357.7109  -305.1607  -224.5673 C0            1 RES     
   10903 C0         357.4163  -306.2461  -223.5052 C0            1 RES     
   10904 C0         358.1816  -307.5773  -223.6735 C0            1 RES     
   10905 C0         358.0150  -308.2512  -225.0469 C0            1 RES     
   10906 C0         356.5460  -308.5428  -225.4013 C0            1 RES     
   10907 C0         356.3782  -309.1639  -226.7955 C0            1 RES     
   10908 C0         356.9698  -310.5795  -226.9029 C0            1 RES     
   10909 C0         356.6956  -311.2356  -228.2655 C0            1 RES     
   10910 C0         357.3951  -310.5278  -229.4266 C0            1 RES     
   10911 C0         358.6361  -302.3316  -225.4432 C0            1 RES     
   10912 C0         358.5041  -301.5878  -224.0786 C0            1 RES     
   10913 C0         358.9271  -300.1277  -224.2667 C0            1 RES     
   10914 C0         359.1928  -299.2919  -223.0179 C0            1 RES     
   10915 C0         357.9702  -298.7350  -222.3033 C0            1 RES     
   10916 C0         358.4668  -297.8912  -221.1106 C0            1 RES     
   10917 C0         357.3673  -297.1014  -220.3968 C0            1 RES     
   10918 C0         356.8014  -295.9777  -221.2675 C0            1 RES     
   10919 H6         361.2532  -303.3126  -224.3028 H6            1 RES     
   10920 H6         361.5473  -304.3724  -225.6661 H6            1 RES     
   10921 H6         359.4353  -303.9483  -226.5862 H6            1 RES     
   10922 H6         359.4031  -304.3805  -223.5085 H6            1 RES     
   10923 H6         359.8118  -305.5945  -224.7637 H6            1 RES     
   10924 H6         357.4371  -305.5196  -225.5802 H6            1 RES     
   10925 H6         357.0601  -304.2993  -224.3150 H6            1 RES     
   10926 H6         356.3267  -306.4552  -223.5189 H6            1 RES     
   10927 H6         357.6466  -305.8425  -222.4943 H6            1 RES     
   10928 H6         357.8329  -308.2777  -222.8822 H6            1 RES     
   10929 H6         359.2660  -307.4103  -223.4992 H6            1 RES     
   10930 H6         358.4617  -307.6025  -225.8296 H6            1 RES     
   10931 H6         358.5931  -309.1982  -225.0217 H6            1 RES     
   10932 H6         355.9854  -307.5860  -225.4199 H6            1 RES     
   10933 H6         356.0869  -309.2020  -224.6323 H6            1 RES     
   10934 H6         355.2881  -309.2278  -227.0049 H6            1 RES     
   10935 H6         356.8369  -308.4833  -227.5432 H6            1 RES     
   10936 H6         358.0653  -310.5672  -226.7261 H6            1 RES     
   10937 H6         356.4954  -311.2123  -226.1214 H6            1 RES     
   10938 H6         355.6003  -311.2691  -228.4543 H6            1 RES     
   10939 H6         357.0713  -312.2808  -228.2274 H6            1 RES     
   10940 H6         357.0229  -309.4910  -229.5515 H6            1 RES     
   10941 H6         358.4927  -310.5077  -229.2574 H6            1 RES     
   10942 H6         357.1910  -311.0782  -230.3688 H6            1 RES     
   10943 H6         357.6143  -302.6634  -225.7262 H6            1 RES     
   10944 H6         358.8946  -301.6271  -226.2626 H6            1 RES     
   10945 H6         357.4497  -301.6008  -223.7221 H6            1 RES     
   10946 H6         359.1341  -302.0830  -223.3121 H6            1 RES     
   10947 H6         358.2749  -299.5892  -224.9862 H6            1 RES     
   10948 H6         359.8960  -300.2090  -224.7116 H6            1 RES     
   10949 H6         359.8220  -299.8644  -222.3320 H6            1 RES     
   10950 H6         359.7880  -298.4115  -223.3511 H6            1 RES     
   10951 H6         357.4224  -298.1031  -223.0342 H6            1 RES     
   10952 H6         357.3016  -299.5476  -221.9485 H6            1 RES     
   10953 H6         358.9470  -298.5799  -220.3789 H6            1 RES     
   10954 H6         359.2413  -297.1635  -221.4440 H6            1 RES     
   10955 H6         357.8207  -296.6279  -219.4983 H6            1 RES     
   10956 H6         356.5573  -297.7837  -220.0636 H6            1 RES     
   10957 H6         356.2953  -296.3770  -222.1684 H6            1 RES     
   10958 H6         356.0610  -295.3939  -220.6838 H6            1 RES     
   10959 H6         357.6181  -295.2910  -221.5842 H6            1 RES     
   10960 C0         363.6312  -302.7607  -225.8044 C0            1 RES     
   10961 C0         364.1835  -303.8160  -224.7426 C0            1 RES     
   10962 C0         365.7064  -303.5014  -224.5575 C0            1 RES     
   10963 C0         366.5154  -304.5585  -223.7790 C0            1 RES     
   10964 C0         368.0006  -304.1974  -223.6006 C0            1 RES     
   10965 C0         368.8044  -304.0124  -224.9001 C0            1 RES     
   10966 C0         368.7366  -305.1921  -225.8841 C0            1 RES     
   10967 C0         369.2079  -306.5247  -225.2758 C0            1 RES     
   10968 C0         369.1291  -307.6944  -226.2703 C0            1 RES     
   10969 C0         370.1156  -307.5507  -227.4431 C0            1 RES     
   10970 C0         370.1282  -308.7761  -228.3703 C0            1 RES     
   10971 C0         368.8086  -308.9840  -229.1135 C0            1 RES     
   10972 C0         363.4979  -304.1647  -223.3550 C0            1 RES     
   10973 C0         363.4286  -303.1374  -222.1898 C0            1 RES     
   10974 C0         362.0124  -302.5663  -221.9954 C0            1 RES     
   10975 C0         361.8481  -301.5038  -220.9212 C0            1 RES     
   10976 C0         361.9106  -301.9700  -219.4735 C0            1 RES     
   10977 C0         361.5458  -300.7578  -218.5924 C0            1 RES     
   10978 C0         361.4060  -301.0752  -217.1025 C0            1 RES     
   10979 C0         360.2006  -301.9700  -216.8099 C0            1 RES     
   10980 H6         364.2393  -301.8293  -225.7300 H6            1 RES     
   10981 H6         363.9823  -303.1530  -226.7857 H6            1 RES     
   10982 H6         364.1102  -304.7904  -225.2785 H6            1 RES     
   10983 H6         365.8149  -302.5229  -224.0417 H6            1 RES     
   10984 H6         366.1583  -303.4067  -225.5683 H6            1 RES     
   10985 H6         366.4173  -305.5418  -224.2850 H6            1 RES     
   10986 H6         366.1288  -304.6550  -222.7460 H6            1 RES     
   10987 H6         368.4734  -305.0008  -222.9962 H6            1 RES     
   10988 H6         368.0804  -303.2601  -223.0070 H6            1 RES     
   10989 H6         369.8654  -303.8305  -224.6209 H6            1 RES     
   10990 H6         368.4448  -303.1029  -225.4271 H6            1 RES     
   10991 H6         367.6957  -305.3073  -226.2550 H6            1 RES     
   10992 H6         369.3763  -304.9221  -226.7490 H6            1 RES     
   10993 H6         368.5457  -306.7845  -224.4237 H6            1 RES     
   10994 H6         370.2465  -306.4272  -224.8920 H6            1 RES     
   10995 H6         369.3827  -308.6244  -225.7163 H6            1 RES     
   10996 H6         368.0848  -307.7823  -226.6381 H6            1 RES     
   10997 H6         369.8852  -306.6505  -228.0492 H6            1 RES     
   10998 H6         371.1383  -307.4369  -227.0218 H6            1 RES     
   10999 H6         370.3755  -309.6886  -227.7854 H6            1 RES     
   11000 H6         370.9264  -308.6245  -229.1286 H6            1 RES     
   11001 H6         367.9779  -309.1940  -228.4099 H6            1 RES     
   11002 H6         368.5624  -308.0849  -229.7176 H6            1 RES     
   11003 H6         368.9060  -309.8539  -229.7965 H6            1 RES     
   11004 H6         364.0849  -305.0141  -222.9600 H6            1 RES     
   11005 H6         362.5394  -304.7057  -223.4657 H6            1 RES     
   11006 H6         363.6362  -303.6846  -221.2439 H6            1 RES     
   11007 H6         364.2093  -302.3580  -222.3010 H6            1 RES     
   11008 H6         361.2845  -303.3919  -221.8256 H6            1 RES     
   11009 H6         361.7078  -302.0319  -222.8883 H6            1 RES     
   11010 H6         362.5555  -300.6664  -221.1062 H6            1 RES     
   11011 H6         360.8151  -301.1383  -221.0433 H6            1 RES     
   11012 H6         361.1650  -302.7832  -219.3469 H6            1 RES     
   11013 H6         362.9198  -302.3557  -219.2190 H6            1 RES     
   11014 H6         362.3372  -299.9871  -218.7223 H6            1 RES     
   11015 H6         360.5826  -300.3104  -218.9304 H6            1 RES     
   11016 H6         361.2415  -300.1111  -216.5732 H6            1 RES     
   11017 H6         362.3392  -301.5350  -216.7209 H6            1 RES     
   11018 H6         360.3149  -302.9690  -217.2755 H6            1 RES     
   11019 H6         360.1040  -302.1070  -215.7134 H6            1 RES     
   11020 H6         359.2684  -301.4960  -217.1883 H6            1 RES     
   11021 C0         360.2054  -306.3647  -238.2303 C0            1 RES     
   11022 C1         360.2979  -305.2235  -237.1935 C1            1 RES     
   11023 C1         360.4491  -304.0059  -237.7766 C1            1 RES     
   11024 S2         360.6450  -302.7573  -236.6789 S2            1 RES     
   11025 C1         360.5769  -303.8218  -235.3549 C1            1 RES     
   11026 C1         360.4050  -305.1387  -235.7953 C1            1 RES     
   11027 C1         360.5077  -304.1761  -239.1768 C1            1 RES     
   11028 C1         360.4601  -305.5040  -239.4687 C1            1 RES     
   11029 C1         360.6572  -305.7550  -240.8213 C1            1 RES     
   11030 C1         360.8173  -304.5520  -241.5294 C1            1 RES     
   11031 S2         360.7353  -303.2005  -240.5046 S2            1 RES     
   11032 H3         360.4143  -305.9660  -235.1113 H3            1 RES     
   11033 H3         360.6881  -306.7431  -241.2646 H3            1 RES     
   11034 N4         360.5804  -303.7004  -245.1720 N4            1 RES     
   11035 C1         360.2402  -303.8526  -243.8586 C1            1 RES     
   11036 C1         361.1438  -304.4226  -242.9451 C1            1 RES     
   11037 C1         362.4015  -304.8052  -243.4148 C1            1 RES     
   11038 N4         363.3848  -305.3135  -242.6286 N4            1 RES     
   11039 S2         364.6266  -305.5078  -243.7019 S2            1 RES     
   11040 N4         363.9936  -304.9826  -245.1378 N4            1 RES     
   11041 C1         362.7376  -304.6186  -244.7792 C1            1 RES     
   11042 C1         361.7998  -304.0734  -245.6522 C1            1 RES     
   11043 H5         359.2562  -303.5363  -243.5233 H5            1 RES     
   11044 C0         358.8471  -307.1260  -238.4256 C0            1 RES     
   11045 C0         357.4970  -306.6499  -239.0833 C0            1 RES     
   11046 C0         356.4898  -307.8302  -238.8494 C0            1 RES     
   11047 C0         355.0896  -307.6760  -239.4560 C0            1 RES     
   11048 C0         354.1694  -308.8729  -239.1191 C0            1 RES     
   11049 C0         354.6237  -310.2450  -239.6640 C0            1 RES     
   11050 C0         354.8645  -310.2913  -241.1832 C0            1 RES     
   11051 C0         353.6276  -309.8824  -242.0026 C0            1 RES     
   11052 C0         353.8872  -309.8755  -243.5159 C0            1 RES     
   11053 C0         354.1439  -311.2779  -244.0928 C0            1 RES     
   11054 C0         354.2883  -311.2731  -245.6229 C0            1 RES     
   11055 C0         355.5252  -310.5165  -246.1088 C0            1 RES     
   11056 C0         356.8860  -305.2682  -238.6799 C0            1 RES     
   11057 C0         356.3975  -305.0491  -237.2150 C0            1 RES     
   11058 C0         357.1724  -303.8777  -236.6038 C0            1 RES     
   11059 C0         357.1047  -303.6849  -235.0915 C0            1 RES     
   11060 C0         355.8564  -303.0029  -234.5512 C0            1 RES     
   11061 C0         356.0187  -302.8683  -233.0225 C0            1 RES     
   11062 C0         354.9320  -302.0301  -232.3453 C0            1 RES     
   11063 C0         355.0175  -300.5509  -232.7275 C0            1 RES     
   11064 H6         358.5576  -307.4687  -237.4651 H6            1 RES     
   11065 H6         359.1202  -308.0206  -239.0295 H6            1 RES     
   11066 H6         357.6898  -306.5623  -240.1759 H6            1 RES     
   11067 H6         356.3576  -307.9880  -237.7566 H6            1 RES     
   11068 H6         356.9460  -308.7525  -239.2686 H6            1 RES     
   11069 H6         355.1630  -307.5355  -240.5536 H6            1 RES     
   11070 H6         354.6004  -306.7807  -239.0220 H6            1 RES     
   11071 H6         353.1557  -308.6496  -239.5112 H6            1 RES     
   11072 H6         354.0678  -308.9581  -238.0145 H6            1 RES     
   11073 H6         353.8467  -310.9959  -239.3979 H6            1 RES     
   11074 H6         355.5603  -310.5584  -239.1554 H6            1 RES     
   11075 H6         355.7141  -309.6239  -241.4397 H6            1 RES     
   11076 H6         355.1609  -311.3299  -241.4385 H6            1 RES     
   11077 H6         353.3464  -308.8441  -241.7327 H6            1 RES     
   11078 H6         352.7700  -310.5496  -241.7658 H6            1 RES     
   11079 H6         352.9821  -309.4589  -244.0094 H6            1 RES     
   11080 H6         354.7408  -309.1971  -243.7250 H6            1 RES     
   11081 H6         355.0552  -311.7297  -243.6491 H6            1 RES     
   11082 H6         353.2735  -311.9210  -243.8374 H6            1 RES     
   11083 H6         353.3772  -310.8355  -246.0864 H6            1 RES     
   11084 H6         354.3773  -312.3268  -245.9648 H6            1 RES     
   11085 H6         355.4717  -309.4413  -245.8439 H6            1 RES     
   11086 H6         356.4431  -310.9597  -245.6675 H6            1 RES     
   11087 H6         355.5908  -310.5914  -247.2145 H6            1 RES     
   11088 H6         356.0113  -305.0826  -239.3393 H6            1 RES     
   11089 H6         357.5943  -304.4710  -238.9918 H6            1 RES     
   11090 H6         355.3135  -304.7973  -237.1936 H6            1 RES     
   11091 H6         356.5495  -305.9727  -236.6204 H6            1 RES     
   11092 H6         356.9918  -302.9249  -237.1445 H6            1 RES     
   11093 H6         358.1940  -304.1491  -236.7655 H6            1 RES     
   11094 H6         357.2706  -304.6471  -234.6007 H6            1 RES     
   11095 H6         357.9620  -303.0272  -234.8211 H6            1 RES     
   11096 H6         355.7941  -302.0037  -235.0320 H6            1 RES     
   11097 H6         354.9403  -303.5826  -234.7918 H6            1 RES     
   11098 H6         356.0076  -303.8922  -232.5846 H6            1 RES     
   11099 H6         357.0022  -302.4082  -232.7743 H6            1 RES     
   11100 H6         355.0891  -302.0978  -231.2463 H6            1 RES     
   11101 H6         353.9269  -302.4380  -232.5825 H6            1 RES     
   11102 H6         354.8306  -300.3990  -233.8089 H6            1 RES     
   11103 H6         354.2567  -299.9772  -232.1602 H6            1 RES     
   11104 H6         356.0229  -300.1475  -232.4725 H6            1 RES     
   11105 C0         361.3919  -307.3440  -237.8715 C0            1 RES     
   11106 C0         361.2345  -308.8250  -237.2989 C0            1 RES     
   11107 C0         362.5911  -309.1752  -236.5994 C0            1 RES     
   11108 C0         362.7737  -310.6539  -236.2018 C0            1 RES     
   11109 C0         364.1096  -310.9478  -235.4967 C0            1 RES     
   11110 C0         365.3780  -310.6331  -236.3098 C0            1 RES     
   11111 C0         365.4422  -311.2872  -237.7000 C0            1 RES     
   11112 C0         365.3290  -312.8213  -237.6608 C0            1 RES     
   11113 C0         365.3898  -313.4590  -239.0583 C0            1 RES     
   11114 C0         366.7624  -313.2908  -239.7341 C0            1 RES     
   11115 C0         366.8660  -314.0334  -241.0754 C0            1 RES     
   11116 C0         365.9335  -313.4725  -242.1492 C0            1 RES     
   11117 C0         360.0008  -309.3549  -236.4539 C0            1 RES     
   11118 C0         359.7093  -308.8449  -235.0142 C0            1 RES     
   11119 C0         358.4953  -307.9000  -234.9617 C0            1 RES     
   11120 C0         358.1625  -307.2933  -233.6085 C0            1 RES     
   11121 C0         357.5470  -308.2195  -232.5691 C0            1 RES     
   11122 C0         357.1442  -307.3433  -231.3654 C0            1 RES     
   11123 C0         356.3644  -308.0815  -230.2757 C0            1 RES     
   11124 C0         354.9753  -308.5140  -230.7473 C0            1 RES     
   11125 H6         362.1120  -306.7878  -237.2272 H6            1 RES     
   11126 H6         362.0035  -307.4722  -238.7932 H6            1 RES     
   11127 H6         361.1635  -309.4546  -238.2158 H6            1 RES     
   11128 H6         362.7024  -308.5480  -235.6886 H6            1 RES     
   11129 H6         363.4122  -308.9094  -237.2995 H6            1 RES     
   11130 H6         362.6668  -311.2925  -237.1037 H6            1 RES     
   11131 H6         362.0018  -310.9528  -235.4664 H6            1 RES     
   11132 H6         364.1165  -312.0240  -235.2210 H6            1 RES     
   11133 H6         364.1555  -310.3726  -234.5459 H6            1 RES     
   11134 H6         366.2559  -310.9612  -235.7112 H6            1 RES     
   11135 H6         365.4653  -309.5336  -236.4419 H6            1 RES     
   11136 H6         364.6330  -310.8771  -238.3413 H6            1 RES     
   11137 H6         366.4124  -310.9892  -238.1472 H6            1 RES     
   11138 H6         364.3459  -313.0978  -237.2257 H6            1 RES     
   11139 H6         366.1272  -313.2503  -237.0171 H6            1 RES     
   11140 H6         365.1927  -314.5468  -238.9403 H6            1 RES     
   11141 H6         364.5823  -313.0252  -239.6855 H6            1 RES     
   11142 H6         366.9940  -312.2192  -239.9039 H6            1 RES     
   11143 H6         367.5353  -313.7128  -239.0552 H6            1 RES     
   11144 H6         366.6551  -315.1144  -240.9249 H6            1 RES     
   11145 H6         367.9097  -313.9327  -241.4438 H6            1 RES     
   11146 H6         364.8693  -313.5930  -241.8624 H6            1 RES     
   11147 H6         366.1500  -312.3968  -242.3219 H6            1 RES     
   11148 H6         366.0957  -314.0236  -243.0993 H6            1 RES     
   11149 H6         360.1816  -310.4402  -236.3475 H6            1 RES     
   11150 H6         359.0687  -309.4328  -237.0445 H6            1 RES     
   11151 H6         359.4023  -309.7207  -234.4010 H6            1 RES     
   11152 H6         360.6226  -308.4192  -234.5515 H6            1 RES     
   11153 H6         357.5959  -308.4051  -235.3814 H6            1 RES     
   11154 H6         358.6921  -307.0180  -235.5608 H6            1 RES     
   11155 H6         359.0521  -306.7652  -233.2017 H6            1 RES     
   11156 H6         357.3693  -306.5569  -233.8182 H6            1 RES     
   11157 H6         356.6515  -308.6925  -233.0247 H6            1 RES     
   11158 H6         358.2626  -309.0104  -232.2618 H6            1 RES     
   11159 H6         358.0724  -306.9226  -230.9197 H6            1 RES     
   11160 H6         356.5160  -306.4872  -231.7037 H6            1 RES     
   11161 H6         356.2235  -307.3713  -229.4315 H6            1 RES     
   11162 H6         356.9459  -308.9524  -229.9136 H6            1 RES     
   11163 H6         355.0386  -309.2579  -231.5662 H6            1 RES     
   11164 H6         354.4284  -308.9761  -229.9001 H6            1 RES     
   11165 H6         354.3965  -307.6322  -231.1000 H6            1 RES     
   11166 C0         362.4108  -304.9058  -250.9919 C0            1 RES     
   11167 C1         362.3394  -304.3123  -249.5677 C1            1 RES     
   11168 C1         362.9729  -303.1144  -249.4741 C1            1 RES     
   11169 S2         362.9937  -302.4871  -247.9222 S2            1 RES     
   11170 C1         362.1775  -303.8395  -247.2931 C1            1 RES     
   11171 C1         361.9052  -304.7618  -248.3094 C1            1 RES     
   11172 C1         363.5369  -302.7987  -250.7291 C1            1 RES     
   11173 C1         363.3147  -303.8274  -251.5912 C1            1 RES     
   11174 C1         363.9658  -303.6488  -252.8059 C1            1 RES     
   11175 C1         364.6531  -302.4234  -252.8232 C1            1 RES     
   11176 S2         364.4772  -301.5802  -251.3598 S2            1 RES     
   11177 H3         361.4618  -305.7163  -248.0982 H3            1 RES     
   11178 H3         363.9484  -304.3604  -253.6227 H3            1 RES     
   11179 N4         366.0596  -300.3415  -255.6049 N4            1 RES     
   11180 C1         365.2068  -300.8025  -254.6434 C1            1 RES     
   11181 C1         365.5287  -301.9418  -253.8857 C1            1 RES     
   11182 C1         366.7511  -302.5706  -254.1292 C1            1 RES     
   11183 N4         367.2078  -303.6418  -253.4311 N4            1 RES     
   11184 S2         368.6945  -303.8935  -254.1081 S2            1 RES     
   11185 N4         368.8091  -302.7114  -255.2604 N4            1 RES     
   11186 C1         367.6278  -302.0608  -255.1195 C1            1 RES     
   11187 C1         367.2540  -300.9445  -255.8630 C1            1 RES     
   11188 H5         364.2669  -300.2847  -254.4727 H5            1 RES     
   11189 C0         361.1061  -304.9983  -251.8591 C0            1 RES     
   11190 C0         360.2645  -303.8650  -252.5585 C0            1 RES     
   11191 C0         359.0120  -304.5965  -253.1574 C0            1 RES     
   11192 C0         358.0342  -303.7406  -253.9720 C0            1 RES     
   11193 C0         356.8153  -304.5539  -254.4678 C0            1 RES     
   11194 C0         357.1307  -305.7172  -255.4338 C0            1 RES     
   11195 C0         357.9315  -305.3201  -256.6864 C0            1 RES     
   11196 C0         357.2394  -304.2305  -257.5244 C0            1 RES     
   11197 C0         358.0665  -303.7963  -258.7430 C0            1 RES     
   11198 C0         358.2113  -304.9025  -259.8018 C0            1 RES     
   11199 C0         358.9417  -304.4221  -261.0659 C0            1 RES     
   11200 C0         360.4042  -304.0537  -260.8133 C0            1 RES     
   11201 C0         359.8669  -302.5871  -251.7499 C0            1 RES     
   11202 C0         358.9045  -302.7253  -250.5302 C0            1 RES     
   11203 C0         359.6160  -302.2087  -249.2761 C0            1 RES     
   11204 C0         359.0049  -302.5402  -247.9176 C0            1 RES     
   11205 C0         357.8295  -301.6805  -247.4760 C0            1 RES     
   11206 C0         357.4044  -302.1523  -246.0696 C0            1 RES     
   11207 C0         356.3543  -301.2642  -245.3983 C0            1 RES     
   11208 C0         356.9083  -299.8856  -245.0324 C0            1 RES     
   11209 H6         360.3949  -305.5204  -251.2714 H6            1 RES     
   11210 H6         361.3888  -305.6624  -252.7069 H6            1 RES     
   11211 H6         360.8847  -303.4823  -253.3996 H6            1 RES     
   11212 H6         358.4303  -305.0622  -252.3320 H6            1 RES     
   11213 H6         359.3794  -305.4154  -253.8122 H6            1 RES     
   11214 H6         358.5615  -303.2666  -254.8247 H6            1 RES     
   11215 H6         357.6256  -302.9380  -253.3254 H6            1 RES     
   11216 H6         356.1137  -303.8540  -254.9669 H6            1 RES     
   11217 H6         356.2723  -304.9722  -253.5914 H6            1 RES     
   11218 H6         356.1663  -306.1732  -255.7506 H6            1 RES     
   11219 H6         357.6979  -306.5069  -254.8963 H6            1 RES     
   11220 H6         358.9385  -304.9662  -256.3802 H6            1 RES     
   11221 H6         358.0662  -306.2377  -257.2961 H6            1 RES     
   11222 H6         357.1125  -303.3239  -256.8983 H6            1 RES     
   11223 H6         356.2331  -304.5745  -257.8494 H6            1 RES     
   11224 H6         357.5444  -302.9343  -259.2126 H6            1 RES     
   11225 H6         359.0609  -303.4508  -258.3903 H6            1 RES     
   11226 H6         358.7506  -305.7800  -259.3890 H6            1 RES     
   11227 H6         357.1916  -305.2274  -260.1034 H6            1 RES     
   11228 H6         358.4071  -303.5501  -261.5020 H6            1 RES     
   11229 H6         358.9218  -305.2468  -261.8107 H6            1 RES     
   11230 H6         360.4906  -303.1969  -260.1151 H6            1 RES     
   11231 H6         360.9522  -304.9254  -260.3969 H6            1 RES     
   11232 H6         360.8800  -303.7601  -261.7724 H6            1 RES     
   11233 H6         359.3859  -301.8783  -252.4575 H6            1 RES     
   11234 H6         360.7982  -302.0501  -251.4692 H6            1 RES     
   11235 H6         357.9841  -302.1181  -250.6825 H6            1 RES     
   11236 H6         358.6022  -303.7845  -250.4014 H6            1 RES     
   11237 H6         359.8780  -301.1324  -249.3532 H6            1 RES     
   11238 H6         360.5312  -302.7614  -249.2687 H6            1 RES     
   11239 H6         358.7472  -303.6018  -247.8911 H6            1 RES     
   11240 H6         359.8098  -302.3796  -247.1646 H6            1 RES     
   11241 H6         358.1840  -300.6283  -247.4502 H6            1 RES     
   11242 H6         356.9777  -301.7625  -248.1838 H6            1 RES     
   11243 H6         356.9959  -303.1842  -246.1625 H6            1 RES     
   11244 H6         358.2870  -302.2009  -245.3919 H6            1 RES     
   11245 H6         356.0484  -301.7603  -244.4509 H6            1 RES     
   11246 H6         355.4598  -301.1663  -246.0486 H6            1 RES     
   11247 H6         357.1995  -299.3120  -245.9344 H6            1 RES     
   11248 H6         356.1337  -299.3075  -244.4889 H6            1 RES     
   11249 H6         357.7952  -299.9936  -244.3687 H6            1 RES     
   11250 C0         363.1123  -306.3105  -250.8178 C0            1 RES     
   11251 C0         362.4190  -307.7302  -251.0411 C0            1 RES     
   11252 C0         363.2780  -308.7716  -250.2474 C0            1 RES     
   11253 C0         362.9573  -310.2534  -250.5297 C0            1 RES     
   11254 C0         363.8082  -311.2404  -249.7111 C0            1 RES     
   11255 C0         365.3293  -311.1522  -249.9290 C0            1 RES     
   11256 C0         365.7871  -311.2600  -251.3930 C0            1 RES     
   11257 C0         365.3308  -312.5574  -252.0834 C0            1 RES     
   11258 C0         365.7921  -312.6473  -253.5471 C0            1 RES     
   11259 C0         367.3199  -312.7712  -253.6869 C0            1 RES     
   11260 C0         367.7742  -312.9869  -255.1389 C0            1 RES     
   11261 C0         367.4873  -311.7895  -256.0451 C0            1 RES     
   11262 C0         360.8686  -308.0281  -250.8843 C0            1 RES     
   11263 C0         360.1564  -307.9786  -249.5029 C0            1 RES     
   11264 C0         359.2615  -306.7357  -249.3491 C0            1 RES     
   11265 C0         358.5678  -306.5576  -248.0086 C0            1 RES     
   11266 C0         357.4053  -307.4916  -247.7031 C0            1 RES     
   11267 C0         356.7675  -307.0033  -246.3864 C0            1 RES     
   11268 C0         355.4803  -307.7321  -245.9962 C0            1 RES     
   11269 C0         354.3295  -307.4337  -246.9583 C0            1 RES     
   11270 H6         363.6255  -306.3167  -249.8281 H6            1 RES     
   11271 H6         363.9915  -306.3267  -251.5010 H6            1 RES     
   11272 H6         362.5758  -307.9310  -252.1261 H6            1 RES     
   11273 H6         363.1588  -308.5855  -249.1582 H6            1 RES     
   11274 H6         364.3445  -308.6008  -250.5085 H6            1 RES     
   11275 H6         363.0743  -310.4540  -251.6153 H6            1 RES     
   11276 H6         361.9135  -310.4830  -250.2405 H6            1 RES     
   11277 H6         363.4677  -312.2679  -249.9612 H6            1 RES     
   11278 H6         363.6035  -311.0891  -248.6284 H6            1 RES     
   11279 H6         365.8054  -311.9642  -249.3369 H6            1 RES     
   11280 H6         365.7026  -310.1886  -249.5212 H6            1 RES     
   11281 H6         365.4072  -310.3875  -251.9664 H6            1 RES     
   11282 H6         366.8948  -311.2035  -251.3849 H6            1 RES     
   11283 H6         364.2212  -312.5864  -252.0955 H6            1 RES     
   11284 H6         365.6957  -313.4429  -251.5194 H6            1 RES     
   11285 H6         365.3289  -313.5556  -253.9904 H6            1 RES     
   11286 H6         365.4134  -311.7599  -254.0973 H6            1 RES     
   11287 H6         367.8307  -311.8716  -253.2860 H6            1 RES     
   11288 H6         367.6500  -313.6536  -253.0964 H6            1 RES     
   11289 H6         367.2873  -313.8955  -255.5551 H6            1 RES     
   11290 H6         368.8727  -313.1549  -255.1336 H6            1 RES     
   11291 H6         366.3981  -311.6028  -256.1343 H6            1 RES     
   11292 H6         367.9867  -310.8798  -255.6488 H6            1 RES     
   11293 H6         367.8828  -311.9964  -257.0617 H6            1 RES     
   11294 H6         360.7478  -309.0688  -251.2372 H6            1 RES     
   11295 H6         360.2510  -307.5497  -251.6675 H6            1 RES     
   11296 H6         359.4477  -308.8347  -249.4570 H6            1 RES     
   11297 H6         360.8845  -308.1054  -248.6763 H6            1 RES     
   11298 H6         358.5113  -306.6975  -250.1714 H6            1 RES     
   11299 H6         359.8676  -305.8387  -249.4091 H6            1 RES     
   11300 H6         359.3194  -306.5679  -247.1895 H6            1 RES     
   11301 H6         358.1051  -305.5583  -248.0622 H6            1 RES     
   11302 H6         356.6798  -307.4146  -248.5404 H6            1 RES     
   11303 H6         357.7483  -308.5432  -247.6114 H6            1 RES     
   11304 H6         357.5145  -307.1340  -245.5727 H6            1 RES     
   11305 H6         356.5292  -305.9166  -246.4523 H6            1 RES     
   11306 H6         355.1805  -307.3588  -244.9924 H6            1 RES     
   11307 H6         355.6644  -308.8227  -245.9291 H6            1 RES     
   11308 H6         354.5425  -307.8164  -247.9762 H6            1 RES     
   11309 H6         353.4064  -307.9255  -246.5887 H6            1 RES     
   11310 H6         354.1465  -306.3380  -247.0118 H6            1 RES     
   11311 C0         369.7102  -300.0411  -260.6306 C0            1 RES     
   11312 C1         369.2190  -299.9947  -259.1669 C1            1 RES     
   11313 C1         370.0133  -299.2243  -258.3790 C1            1 RES     
   11314 S2         369.5620  -299.2267  -256.7669 S2            1 RES     
   11315 C1         368.2869  -300.3134  -257.0567 C1            1 RES     
   11316 C1         368.2381  -300.6590  -258.4117 C1            1 RES     
   11317 C1         371.0792  -298.7243  -259.1579 C1            1 RES     
   11318 C1         370.9912  -299.2335  -260.4164 C1            1 RES     
   11319 C1         372.0886  -298.8977  -261.2001 C1            1 RES     
   11320 C1         372.9805  -298.0850  -260.4801 C1            1 RES     
   11321 S2         372.4361  -297.7982  -258.8975 S2            1 RES     
   11322 H3         367.5480  -301.3942  -258.7798 H3            1 RES     
   11323 H3         372.2359  -299.2237  -262.2228 H3            1 RES     
   11324 N4         375.7888  -295.8401  -261.5402 N4            1 RES     
   11325 C1         374.5481  -296.2583  -261.1530 C1            1 RES     
   11326 C1         374.2858  -297.6224  -260.9381 C1            1 RES     
   11327 C1         375.3332  -298.5292  -261.1095 C1            1 RES     
   11328 N4         375.2297  -299.8633  -260.8793 N4            1 RES     
   11329 S2         376.7667  -300.3913  -261.1801 S2            1 RES     
   11330 N4         377.5831  -299.0137  -261.5974 N4            1 RES     
   11331 C1         376.6174  -298.0676  -261.4929 C1            1 RES     
   11332 C1         376.8228  -296.7092  -261.7197 C1            1 RES     
   11333 H5         373.7568  -295.5257  -261.0198 H5            1 RES     
   11334 C0         368.8652  -299.3432  -261.7538 C0            1 RES     
   11335 C0         368.6394  -297.8141  -262.0581 C0            1 RES     
   11336 C0         367.5942  -297.7800  -263.2280 C0            1 RES     
   11337 C0         367.2305  -296.4008  -263.7917 C0            1 RES     
   11338 C0         366.1568  -296.4854  -264.9020 C0            1 RES     
   11339 C0         366.5596  -297.2718  -266.1689 C0            1 RES     
   11340 C0         367.8540  -296.7891  -266.8469 C0            1 RES     
   11341 C0         367.8064  -295.3045  -267.2497 C0            1 RES     
   11342 C0         369.1191  -294.8111  -267.8750 C0            1 RES     
   11343 C0         369.4187  -295.4536  -269.2399 C0            1 RES     
   11344 C0         370.6732  -294.8692  -269.9084 C0            1 RES     
   11345 C0         371.9613  -295.1740  -269.1427 C0            1 RES     
   11346 C0         368.2503  -296.8440  -260.8950 C0            1 RES     
   11347 C0         366.8820  -297.0326  -260.1705 C0            1 RES     
   11348 C0         367.1395  -297.2806  -258.6811 C0            1 RES     
   11349 C0         365.9874  -297.8128  -257.8335 C0            1 RES     
   11350 C0         364.9554  -296.7922  -257.3766 C0            1 RES     
   11351 C0         363.9195  -297.5303  -256.5028 C0            1 RES     
   11352 C0         362.9154  -296.6105  -255.8043 C0            1 RES     
   11353 C0         363.5719  -295.7491  -254.7234 C0            1 RES     
   11354 H6         367.8840  -299.7368  -261.6757 H6            1 RES     
   11355 H6         369.3031  -299.7273  -262.7028 H6            1 RES     
   11356 H6         369.6079  -297.4198  -262.4391 H6            1 RES     
   11357 H6         366.6478  -298.2546  -262.8879 H6            1 RES     
   11358 H6         367.9977  -298.3957  -264.0603 H6            1 RES     
   11359 H6         368.1409  -295.8897  -264.1657 H6            1 RES     
   11360 H6         366.7899  -295.7813  -262.9846 H6            1 RES     
   11361 H6         365.8813  -295.4512  -265.1948 H6            1 RES     
   11362 H6         365.2355  -296.9508  -264.4867 H6            1 RES     
   11363 H6         365.7219  -297.2029  -266.8982 H6            1 RES     
   11364 H6         366.6801  -298.3477  -265.9192 H6            1 RES     
   11365 H6         368.7113  -296.9582  -266.1616 H6            1 RES     
   11366 H6         368.0102  -297.4202  -267.7463 H6            1 RES     
   11367 H6         367.6483  -294.6913  -266.3392 H6            1 RES     
   11368 H6         366.9593  -295.1206  -267.9463 H6            1 RES     
   11369 H6         369.0282  -293.7128  -268.0222 H6            1 RES     
   11370 H6         369.9450  -294.9989  -267.1571 H6            1 RES     
   11371 H6         369.5438  -296.5520  -269.1435 H6            1 RES     
   11372 H6         368.5548  -295.2564  -269.9114 H6            1 RES     
   11373 H6         370.5603  -293.7693  -270.0258 H6            1 RES     
   11374 H6         370.7649  -295.3168  -270.9215 H6            1 RES     
   11375 H6         371.9543  -294.7070  -268.1372 H6            1 RES     
   11376 H6         372.0940  -296.2719  -269.0384 H6            1 RES     
   11377 H6         372.8274  -294.7632  -269.7026 H6            1 RES     
   11378 H6         368.2555  -295.8109  -261.3036 H6            1 RES     
   11379 H6         369.0905  -296.8184  -260.1685 H6            1 RES     
   11380 H6         366.2546  -296.1182  -260.2670 H6            1 RES     
   11381 H6         366.3269  -297.8813  -260.6192 H6            1 RES     
   11382 H6         367.6421  -296.4202  -258.1912 H6            1 RES     
   11383 H6         367.8312  -298.0960  -258.6847 H6            1 RES     
   11384 H6         365.5118  -298.6446  -258.3588 H6            1 RES     
   11385 H6         366.4461  -298.2293  -256.9079 H6            1 RES     
   11386 H6         365.4948  -296.0221  -256.7855 H6            1 RES     
   11387 H6         364.4545  -296.3063  -258.2404 H6            1 RES     
   11388 H6         363.3626  -298.2399  -257.1559 H6            1 RES     
   11389 H6         364.4307  -298.1299  -255.7156 H6            1 RES     
   11390 H6         362.1607  -297.2545  -255.3015 H6            1 RES     
   11391 H6         362.3937  -295.9734  -256.5490 H6            1 RES     
   11392 H6         364.3128  -295.0484  -255.1563 H6            1 RES     
   11393 H6         362.7951  -295.1538  -254.2018 H6            1 RES     
   11394 H6         364.0793  -296.3968  -253.9739 H6            1 RES     
   11395 C0         369.9569  -301.5718  -260.9337 C0            1 RES     
   11396 C0         369.1110  -302.4670  -261.9482 C0            1 RES     
   11397 C0         369.3357  -303.9557  -261.5174 C0            1 RES     
   11398 C0         368.8319  -305.0206  -262.5125 C0            1 RES     
   11399 C0         369.0516  -306.4680  -262.0382 C0            1 RES     
   11400 C0         370.5146  -306.8738  -261.7849 C0            1 RES     
   11401 C0         371.4739  -306.6284  -262.9614 C0            1 RES     
   11402 C0         371.0499  -307.3433  -264.2565 C0            1 RES     
   11403 C0         372.0161  -307.0839  -265.4238 C0            1 RES     
   11404 C0         373.4075  -307.7023  -265.1982 C0            1 RES     
   11405 C0         374.3350  -307.5530  -266.4142 C0            1 RES     
   11406 C0         374.6997  -306.1002  -266.7201 C0            1 RES     
   11407 C0         367.5994  -302.2105  -262.3560 C0            1 RES     
   11408 C0         366.4326  -302.3845  -261.3430 C0            1 RES     
   11409 C0         365.8487  -301.0361  -260.8844 C0            1 RES     
   11410 C0         364.7429  -301.0916  -259.8433 C0            1 RES     
   11411 C0         363.3783  -301.5782  -260.3105 C0            1 RES     
   11412 C0         362.4005  -301.3779  -259.1346 C0            1 RES     
   11413 C0         360.9368  -301.6708  -259.4694 C0            1 RES     
   11414 C0         360.3530  -300.6588  -260.4563 C0            1 RES     
   11415 H6         370.0253  -302.1073  -259.9582 H6            1 RES     
   11416 H6         371.0062  -301.6716  -261.2926 H6            1 RES     
   11417 H6         369.6323  -302.3227  -262.9227 H6            1 RES     
   11418 H6         368.8432  -304.1279  -260.5361 H6            1 RES     
   11419 H6         370.4281  -304.1086  -261.3829 H6            1 RES     
   11420 H6         369.3178  -304.8615  -263.4979 H6            1 RES     
   11421 H6         367.7357  -304.9366  -262.6438 H6            1 RES     
   11422 H6         368.6182  -307.1445  -262.8055 H6            1 RES     
   11423 H6         368.4776  -306.6367  -261.1006 H6            1 RES     
   11424 H6         370.5274  -307.9543  -261.5227 H6            1 RES     
   11425 H6         370.9014  -306.3191  -260.9035 H6            1 RES     
   11426 H6         371.5530  -305.5373  -263.1551 H6            1 RES     
   11427 H6         372.4720  -306.9882  -262.6383 H6            1 RES     
   11428 H6         370.0577  -306.9577  -264.5711 H6            1 RES     
   11429 H6         370.9582  -308.4370  -264.0807 H6            1 RES     
   11430 H6         371.5753  -307.5455  -266.3341 H6            1 RES     
   11431 H6         372.0906  -305.9883  -265.5906 H6            1 RES     
   11432 H6         373.9055  -307.2510  -264.3155 H6            1 RES     
   11433 H6         373.2750  -308.7897  -265.0075 H6            1 RES     
   11434 H6         373.8623  -308.0157  -267.3077 H6            1 RES     
   11435 H6         375.2764  -308.1024  -266.1974 H6            1 RES     
   11436 H6         373.8037  -305.5091  -266.9974 H6            1 RES     
   11437 H6         375.1916  -305.6343  -265.8398 H6            1 RES     
   11438 H6         375.4058  -306.0724  -267.5764 H6            1 RES     
   11439 H6         367.3995  -302.9432  -263.1593 H6            1 RES     
   11440 H6         367.4614  -301.3002  -262.9692 H6            1 RES     
   11441 H6         365.5922  -302.8803  -261.8772 H6            1 RES     
   11442 H6         366.7302  -303.0466  -260.5048 H6            1 RES     
   11443 H6         365.5101  -300.4440  -261.7648 H6            1 RES     
   11444 H6         366.6121  -300.4626  -260.3708 H6            1 RES     
   11445 H6         365.0902  -301.6591  -258.9526 H6            1 RES     
   11446 H6         364.5723  -300.0404  -259.5583 H6            1 RES     
   11447 H6         363.0763  -300.9564  -261.1796 H6            1 RES     
   11448 H6         363.4155  -302.6440  -260.6180 H6            1 RES     
   11449 H6         362.7191  -302.0459  -258.3042 H6            1 RES     
   11450 H6         362.4543  -300.3291  -258.7616 H6            1 RES     
   11451 H6         360.3580  -301.5857  -258.5235 H6            1 RES     
   11452 H6         360.8331  -302.7036  -259.8573 H6            1 RES     
   11453 H6         360.8578  -300.7155  -261.4412 H6            1 RES     
   11454 H6         359.2750  -300.8732  -260.6060 H6            1 RES     
   11455 H6         360.4534  -299.6268  -260.0542 H6            1 RES     
   11456 C0         381.0863  -295.1803  -264.7302 C0            1 RES     
   11457 C1         380.0838  -295.4664  -263.5905 C1            1 RES     
   11458 C1         380.6544  -295.3643  -262.3620 C1            1 RES     
   11459 S2         379.6184  -295.7584  -261.1074 S2            1 RES     
   11460 C1         378.3530  -296.1298  -262.1806 C1            1 RES     
   11461 C1         378.7646  -295.9419  -263.5046 C1            1 RES     
   11462 C1         382.0223  -295.0535  -262.5200 C1            1 RES     
   11463 C1         382.3248  -295.0261  -263.8462 C1            1 RES     
   11464 C1         383.6863  -294.8671  -264.0743 C1            1 RES     
   11465 C1         384.3801  -294.7407  -262.8590 C1            1 RES     
   11466 S2         383.3366  -294.8407  -261.5231 S2            1 RES     
   11467 H3         378.1301  -296.1969  -264.3321 H3            1 RES     
   11468 H3         384.1469  -294.8490  -265.0548 H3            1 RES     
   11469 N4         387.8005  -293.4637  -262.0101 N4            1 RES     
   11470 C1         386.4483  -293.5043  -262.1948 C1            1 RES     
   11471 C1         385.8276  -294.6609  -262.6976 C1            1 RES     
   11472 C1         386.6290  -295.7687  -262.9792 C1            1 RES     
   11473 N4         386.1506  -296.9628  -263.4137 N4            1 RES     
   11474 S2         387.5239  -297.8780  -263.5057 S2            1 RES     
   11475 N4         388.7216  -296.8428  -263.0240 N4            1 RES     
   11476 C1         388.0281  -295.7079  -262.7602 C1            1 RES     
   11477 C1         388.6014  -294.5313  -262.2851 C1            1 RES     
   11478 H5         385.8519  -292.6276  -261.9574 H5            1 RES     
   11479 C0         380.9273  -293.8795  -265.5935 C0            1 RES     
   11480 C0         381.1839  -292.3706  -265.2203 C0            1 RES     
   11481 C0         380.7174  -291.5538  -266.4763 C0            1 RES     
   11482 C0         380.9195  -290.0342  -266.4281 C0            1 RES     
   11483 C0         380.3779  -289.3300  -267.6944 C0            1 RES     
   11484 C0         381.0604  -289.7189  -269.0244 C0            1 RES     
   11485 C0         382.5889  -289.5417  -269.0443 C0            1 RES     
   11486 C0         383.0333  -288.1025  -268.7285 C0            1 RES     
   11487 C0         384.5598  -287.9411  -268.6938 C0            1 RES     
   11488 C0         385.2206  -288.1339  -270.0693 C0            1 RES     
   11489 C0         386.7323  -287.8575  -270.0456 C0            1 RES     
   11490 C0         387.5142  -288.8575  -269.1929 C0            1 RES     
   11491 C0         380.5950  -291.7923  -263.8921 C0            1 RES     
   11492 C0         379.0475  -291.7044  -263.7189 C0            1 RES     
   11493 C0         378.6380  -292.5279  -262.4941 C0            1 RES     
   11494 C0         377.1591  -292.8586  -262.3146 C0            1 RES     
   11495 C0         376.2846  -291.7569  -261.7342 C0            1 RES     
   11496 C0         374.8535  -292.3171  -261.5951 C0            1 RES     
   11497 C0         373.8868  -291.3962  -260.8471 C0            1 RES     
   11498 C0         374.2395  -291.2663  -259.3638 C0            1 RES     
   11499 H6         379.9336  -293.8871  -265.9625 H6            1 RES     
   11500 H6         381.6055  -294.0436  -266.4613 H6            1 RES     
   11501 H6         382.2854  -292.2531  -265.1126 H6            1 RES     
   11502 H6         379.6340  -291.7346  -266.6493 H6            1 RES     
   11503 H6         381.2678  -291.9457  -267.3583 H6            1 RES     
   11504 H6         381.9922  -289.7969  -266.2768 H6            1 RES     
   11505 H6         380.3467  -289.6167  -265.5756 H6            1 RES     
   11506 H6         380.4760  -288.2344  -267.5484 H6            1 RES     
   11507 H6         379.2894  -289.5381  -267.7928 H6            1 RES     
   11508 H6         380.6140  -289.1003  -269.8347 H6            1 RES     
   11509 H6         380.8316  -290.7787  -269.2667 H6            1 RES     
   11510 H6         383.0478  -290.2388  -268.3118 H6            1 RES     
   11511 H6         382.9414  -289.8332  -270.0555 H6            1 RES     
   11512 H6         382.6708  -287.8297  -267.7165 H6            1 RES     
   11513 H6         382.5912  -287.3925  -269.4613 H6            1 RES     
   11514 H6         384.7798  -286.9081  -268.3463 H6            1 RES     
   11515 H6         384.9739  -288.6540  -267.9503 H6            1 RES     
   11516 H6         385.0511  -289.1619  -270.4513 H6            1 RES     
   11517 H6         384.7565  -287.4149  -270.7791 H6            1 RES     
   11518 H6         386.9212  -286.8254  -269.6776 H6            1 RES     
   11519 H6         387.1125  -287.9275  -271.0875 H6            1 RES     
   11520 H6         387.2169  -288.7991  -268.1265 H6            1 RES     
   11521 H6         387.3485  -289.8905  -269.5659 H6            1 RES     
   11522 H6         388.5981  -288.6263  -269.2570 H6            1 RES     
   11523 H6         380.9890  -290.7604  -263.7717 H6            1 RES     
   11524 H6         381.0658  -292.3291  -263.0409 H6            1 RES     
   11525 H6         378.7279  -290.6512  -263.5520 H6            1 RES     
   11526 H6         378.5400  -292.0790  -264.6309 H6            1 RES     
   11527 H6         379.0851  -292.1382  -261.5554 H6            1 RES     
   11528 H6         379.0763  -293.4844  -262.6846 H6            1 RES     
   11529 H6         376.7563  -293.2213  -263.2635 H6            1 RES     
   11530 H6         377.1131  -293.7065  -261.5938 H6            1 RES     
   11531 H6         376.7048  -291.4936  -260.7404 H6            1 RES     
   11532 H6         376.2840  -290.8549  -262.3820 H6            1 RES     
   11533 H6         374.4554  -292.5002  -262.6190 H6            1 RES     
   11534 H6         374.8681  -293.2946  -261.0613 H6            1 RES     
   11535 H6         372.8730  -291.8499  -260.9079 H6            1 RES     
   11536 H6         373.8544  -290.3972  -261.3305 H6            1 RES     
   11537 H6         375.2261  -290.7828  -259.2214 H6            1 RES     
   11538 H6         373.4734  -290.6478  -258.8537 H6            1 RES     
   11539 H6         374.2549  -292.2708  -258.8849 H6            1 RES     
   11540 C0         381.0863  -296.4881  -265.6163 C0            1 RES     
   11541 C0         380.5310  -296.6008  -267.1080 C0            1 RES     
   11542 C0         380.2327  -298.1181  -267.3554 C0            1 RES     
   11543 C0         379.9374  -298.5094  -268.8175 C0            1 RES     
   11544 C0         379.6268  -300.0042  -269.0104 C0            1 RES     
   11545 C0         380.7435  -300.9783  -268.5943 C0            1 RES     
   11546 C0         382.1159  -300.7110  -269.2344 C0            1 RES     
   11547 C0         382.0872  -300.7254  -270.7729 C0            1 RES     
   11548 C0         383.4652  -300.4518  -271.3969 C0            1 RES     
   11549 C0         384.4818  -301.5737  -271.1194 C0            1 RES     
   11550 C0         385.8200  -301.3640  -271.8450 C0            1 RES     
   11551 C0         386.5875  -300.1369  -271.3528 C0            1 RES     
   11552 C0         379.3983  -295.6845  -267.7361 C0            1 RES     
   11553 C0         377.9207  -295.7575  -267.2575 C0            1 RES     
   11554 C0         377.5182  -294.5374  -266.4098 C0            1 RES     
   11555 C0         376.1102  -294.5402  -265.8376 C0            1 RES     
   11556 C0         374.9675  -294.2990  -266.8139 C0            1 RES     
   11557 C0         373.6776  -294.1744  -265.9776 C0            1 RES     
   11558 C0         372.4374  -293.7754  -266.7795 C0            1 RES     
   11559 C0         372.5277  -292.3461  -267.3160 C0            1 RES     
   11560 H6         380.6460  -297.3131  -265.0092 H6            1 RES     
   11561 H6         382.1418  -296.8347  -265.6921 H6            1 RES     
   11562 H6         381.4106  -296.3302  -267.7365 H6            1 RES     
   11563 H6         379.3698  -298.4257  -266.7260 H6            1 RES     
   11564 H6         381.1213  -298.6969  -267.0233 H6            1 RES     
   11565 H6         380.7932  -298.2092  -269.4579 H6            1 RES     
   11566 H6         379.0290  -297.9898  -269.1790 H6            1 RES     
   11567 H6         379.3911  -300.1645  -270.0841 H6            1 RES     
   11568 H6         378.7091  -300.2639  -268.4381 H6            1 RES     
   11569 H6         380.4127  -302.0071  -268.8562 H6            1 RES     
   11570 H6         380.8658  -300.9456  -267.4906 H6            1 RES     
   11571 H6         382.5042  -299.7305  -268.8850 H6            1 RES     
   11572 H6         382.8005  -301.4992  -268.8599 H6            1 RES     
   11573 H6         381.4103  -299.9200  -271.1269 H6            1 RES     
   11574 H6         381.6940  -301.6974  -271.1419 H6            1 RES     
   11575 H6         383.3266  -300.3743  -272.4973 H6            1 RES     
   11576 H6         383.8399  -299.4749  -271.0239 H6            1 RES     
   11577 H6         384.6800  -301.6715  -270.0322 H6            1 RES     
   11578 H6         384.0478  -302.5304  -271.4836 H6            1 RES     
   11579 H6         385.6461  -301.2816  -272.9399 H6            1 RES     
   11580 H6         386.4536  -302.2585  -271.6618 H6            1 RES     
   11581 H6         386.0275  -299.2021  -271.5568 H6            1 RES     
   11582 H6         386.7844  -300.2191  -270.2626 H6            1 RES     
   11583 H6         387.5601  -300.0755  -271.8848 H6            1 RES     
   11584 H6         379.3727  -295.9664  -268.8047 H6            1 RES     
   11585 H6         379.7173  -294.6355  -267.8831 H6            1 RES     
   11586 H6         377.2702  -295.6932  -268.1575 H6            1 RES     
   11587 H6         377.7107  -296.7283  -266.7645 H6            1 RES     
   11588 H6         377.6926  -293.5974  -266.9811 H6            1 RES     
   11589 H6         378.1252  -294.4992  -265.5122 H6            1 RES     
   11590 H6         375.9450  -295.4656  -265.2441 H6            1 RES     
   11591 H6         376.0790  -293.6681  -265.1638 H6            1 RES     
   11592 H6         375.1767  -293.3507  -267.3526 H6            1 RES     
   11593 H6         374.8853  -295.1271  -267.5484 H6            1 RES     
   11594 H6         373.4882  -295.1552  -265.4884 H6            1 RES     
   11595 H6         373.8117  -293.4171  -265.1710 H6            1 RES     
   11596 H6         371.5684  -293.8169  -266.0866 H6            1 RES     
   11597 H6         372.2682  -294.4955  -267.6045 H6            1 RES     
   11598 H6         373.3522  -292.2395  -268.0486 H6            1 RES     
   11599 H6         371.5765  -292.0846  -267.8234 H6            1 RES     
   11600 H6         372.6882  -291.6304  -266.4800 H6            1 RES     
   11601 C0         393.9275  -293.7316  -263.0408 C0            1 RES     
   11602 C1         392.5220  -294.0055  -262.4618 C1            1 RES     
   11603 C1         392.5720  -294.5511  -261.2188 C1            1 RES     
   11604 S2         391.0675  -294.9458  -260.5996 S2            1 RES     
   11605 C1         390.2767  -294.4319  -262.0144 C1            1 RES     
   11606 C1         391.2053  -293.9627  -262.9499 C1            1 RES     
   11607 C1         393.9240  -294.7292  -260.8541 C1            1 RES     
   11608 C1         394.7204  -294.3577  -261.8927 C1            1 RES     
   11609 C1         396.0607  -294.6403  -261.6580 C1            1 RES     
   11610 C1         396.2312  -295.2055  -260.3829 C1            1 RES     
   11611 S2         394.7533  -295.3715  -259.5633 S2            1 RES     
   11612 H3         390.9070  -293.6644  -263.9370 H3            1 RES     
   11613 H3         396.8606  -294.4544  -262.3647 H3            1 RES     
   11614 N4         399.2345  -295.6490  -258.1843 N4            1 RES     
   11615 C1         398.0908  -295.1248  -258.7148 C1            1 RES     
   11616 C1         397.4777  -295.7227  -259.8295 C1            1 RES     
   11617 C1         398.0582  -296.8759  -260.3605 C1            1 RES     
   11618 N4         397.5371  -297.5820  -261.3965 N4            1 RES     
   11619 S2         398.5963  -298.8438  -261.5288 S2            1 RES     
   11620 N4         399.7060  -298.5550  -260.3356 N4            1 RES     
   11621 C1         399.2348  -297.4117  -259.7792 C1            1 RES     
   11622 C1         399.8208  -296.7696  -258.6915 C1            1 RES     
   11623 H5         397.6595  -294.2310  -258.2723 H5            1 RES     
   11624 C0         394.4126  -292.2512  -263.2299 C0            1 RES     
   11625 C0         394.8295  -291.1708  -262.1618 C0            1 RES     
   11626 C0         395.0868  -289.8600  -262.9852 C0            1 RES     
   11627 C0         395.5850  -288.6380  -262.2036 C0            1 RES     
   11628 C0         395.7544  -287.3934  -263.1065 C0            1 RES     
   11629 C0         396.7993  -287.5195  -264.2370 C0            1 RES     
   11630 C0         398.2109  -287.9196  -263.7728 C0            1 RES     
   11631 C0         398.8026  -286.9483  -262.7359 C0            1 RES     
   11632 C0         400.1876  -287.3801  -262.2328 C0            1 RES     
   11633 C0         401.2744  -287.3131  -263.3191 C0            1 RES     
   11634 C0         402.6759  -287.6364  -262.7772 C0            1 RES     
   11635 C0         402.8178  -289.0815  -262.2977 C0            1 RES     
   11636 C0         393.9108  -290.9146  -260.9226 C0            1 RES     
   11637 C0         392.4807  -290.3316  -261.1412 C0            1 RES     
   11638 C0         391.4521  -291.3165  -260.5772 C0            1 RES     
   11639 C0         389.9882  -291.1225  -260.9619 C0            1 RES     
   11640 C0         389.2238  -290.0510  -260.1981 C0            1 RES     
   11641 C0         387.7676  -290.0587  -260.7085 C0            1 RES     
   11642 C0         386.8151  -289.1677  -259.9079 C0            1 RES     
   11643 C0         386.5768  -289.6975  -258.4923 C0            1 RES     
   11644 H6         393.6685  -291.7660  -263.8085 H6            1 RES     
   11645 H6         395.3221  -292.3413  -263.8658 H6            1 RES     
   11646 H6         395.7965  -291.5100  -261.7279 H6            1 RES     
   11647 H6         394.1475  -289.5594  -263.4988 H6            1 RES     
   11648 H6         395.8374  -290.0952  -263.7699 H6            1 RES     
   11649 H6         396.5358  -288.8783  -261.6859 H6            1 RES     
   11650 H6         394.8316  -288.3622  -261.4384 H6            1 RES     
   11651 H6         396.0274  -286.5334  -262.4606 H6            1 RES     
   11652 H6         394.7751  -287.1403  -263.5700 H6            1 RES     
   11653 H6         396.8558  -286.5415  -264.7648 H6            1 RES     
   11654 H6         396.4554  -288.2674  -264.9830 H6            1 RES     
   11655 H6         398.1787  -288.9431  -263.3434 H6            1 RES     
   11656 H6         398.8578  -287.9508  -264.6740 H6            1 RES     
   11657 H6         398.1424  -286.9298  -261.8450 H6            1 RES     
   11658 H6         398.8528  -285.9196  -263.1553 H6            1 RES     
   11659 H6         400.4764  -286.6885  -261.4115 H6            1 RES     
   11660 H6         400.1075  -288.4048  -261.8129 H6            1 RES     
   11661 H6         401.0452  -288.0070  -264.1542 H6            1 RES     
   11662 H6         401.2979  -286.2766  -263.7205 H6            1 RES     
   11663 H6         402.9288  -286.9412  -261.9471 H6            1 RES     
   11664 H6         403.4086  -287.4759  -263.5972 H6            1 RES     
   11665 H6         402.1469  -289.2909  -261.4403 H6            1 RES     
   11666 H6         402.5873  -289.7843  -263.1264 H6            1 RES     
   11667 H6         403.8618  -289.2567  -261.9634 H6            1 RES     
   11668 H6         394.4438  -290.2093  -260.2497 H6            1 RES     
   11669 H6         393.8781  -291.8452  -260.3164 H6            1 RES     
   11670 H6         392.3633  -289.3625  -260.6063 H6            1 RES     
   11671 H6         392.3025  -290.1540  -262.2212 H6            1 RES     
   11672 H6         391.5693  -291.4682  -259.4835 H6            1 RES     
   11673 H6         391.7063  -292.2375  -261.0573 H6            1 RES     
   11674 H6         389.9206  -290.9601  -262.0404 H6            1 RES     
   11675 H6         389.4765  -292.0873  -260.7431 H6            1 RES     
   11676 H6         389.2674  -290.3212  -259.1218 H6            1 RES     
   11677 H6         389.6773  -289.0477  -260.3424 H6            1 RES     
   11678 H6         387.7733  -289.7171  -261.7685 H6            1 RES     
   11679 H6         387.3546  -291.0930  -260.6919 H6            1 RES     
   11680 H6         385.8334  -289.1672  -260.4309 H6            1 RES     
   11681 H6         387.1972  -288.1257  -259.8764 H6            1 RES     
   11682 H6         387.5087  -289.6905  -257.8934 H6            1 RES     
   11683 H6         385.8297  -289.0590  -257.9788 H6            1 RES     
   11684 H6         386.1801  -290.7365  -258.5346 H6            1 RES     
   11685 C0         393.9855  -294.5550  -264.3878 C0            1 RES     
   11686 C0         394.0500  -293.9331  -265.8559 C0            1 RES     
   11687 C0         393.5447  -295.0490  -266.8315 C0            1 RES     
   11688 C0         393.7681  -294.7733  -268.3322 C0            1 RES     
   11689 C0         393.2353  -295.8841  -269.2543 C0            1 RES     
   11690 C0         393.8531  -297.2785  -269.0474 C0            1 RES     
   11691 C0         395.3887  -297.3291  -269.1120 C0            1 RES     
   11692 C0         395.9635  -296.7991  -270.4374 C0            1 RES     
   11693 C0         397.4992  -296.8518  -270.4840 C0            1 RES     
   11694 C0         398.0493  -298.2893  -270.4883 C0            1 RES     
   11695 C0         399.5751  -298.3476  -270.6608 C0            1 RES     
   11696 C0         400.3390  -297.7389  -269.4848 C0            1 RES     
   11697 C0         393.4884  -292.5094  -266.2738 C0            1 RES     
   11698 C0         391.9652  -292.1966  -266.2866 C0            1 RES     
   11699 C0         391.5437  -291.2883  -265.1177 C0            1 RES     
   11700 C0         390.0616  -290.9727  -265.0006 C0            1 RES     
   11701 C0         389.4780  -290.0082  -266.0234 C0            1 RES     
   11702 C0         388.0259  -289.7171  -265.5926 C0            1 RES     
   11703 C0         387.3218  -288.6409  -266.4210 C0            1 RES     
   11704 C0         387.9296  -287.2537  -266.2079 C0            1 RES     
   11705 H6         393.1714  -295.3162  -264.3591 H6            1 RES     
   11706 H6         394.8807  -295.2149  -264.3323 H6            1 RES     
   11707 H6         395.1419  -293.8043  -266.0385 H6            1 RES     
   11708 H6         392.4592  -295.2162  -266.6606 H6            1 RES     
   11709 H6         394.0794  -295.9893  -266.5771 H6            1 RES     
   11710 H6         394.8498  -294.6061  -268.5177 H6            1 RES     
   11711 H6         393.2140  -293.8667  -268.6435 H6            1 RES     
   11712 H6         393.4106  -295.5649  -270.3039 H6            1 RES     
   11713 H6         392.1339  -295.9700  -269.1248 H6            1 RES     
   11714 H6         393.4326  -297.9555  -269.8229 H6            1 RES     
   11715 H6         393.5365  -297.6767  -268.0598 H6            1 RES     
   11716 H6         395.8155  -296.7451  -268.2688 H6            1 RES     
   11717 H6         395.6782  -298.3903  -268.9698 H6            1 RES     
   11718 H6         395.6766  -295.7330  -270.5523 H6            1 RES     
   11719 H6         395.5420  -297.3671  -271.2948 H6            1 RES     
   11720 H6         397.8244  -296.3536  -271.4232 H6            1 RES     
   11721 H6         397.9038  -296.2742  -269.6258 H6            1 RES     
   11722 H6         397.7780  -298.8223  -269.5539 H6            1 RES     
   11723 H6         397.5927  -298.8309  -271.3454 H6            1 RES     
   11724 H6         399.8677  -297.8342  -271.6024 H6            1 RES     
   11725 H6         399.8707  -299.4158  -270.7432 H6            1 RES     
   11726 H6         400.1262  -296.6557  -269.3827 H6            1 RES     
   11727 H6         400.0688  -298.2590  -268.5411 H6            1 RES     
   11728 H6         401.4296  -297.8582  -269.6553 H6            1 RES     
   11729 H6         393.8223  -292.3741  -267.3189 H6            1 RES     
   11730 H6         394.0633  -291.6693  -265.8409 H6            1 RES     
   11731 H6         391.7520  -291.5916  -267.1953 H6            1 RES     
   11732 H6         391.3694  -293.1288  -266.3607 H6            1 RES     
   11733 H6         392.1317  -290.3426  -265.1336 H6            1 RES     
   11734 H6         391.7419  -291.7880  -264.1761 H6            1 RES     
   11735 H6         389.4762  -291.9168  -264.9567 H6            1 RES     
   11736 H6         389.9626  -290.4409  -264.0400 H6            1 RES     
   11737 H6         390.0862  -289.0794  -265.9987 H6            1 RES     
   11738 H6         389.5094  -290.4394  -267.0457 H6            1 RES     
   11739 H6         387.4476  -290.6641  -265.6691 H6            1 RES     
   11740 H6         387.9969  -289.3909  -264.5274 H6            1 RES     
   11741 H6         386.2650  -288.5978  -266.0771 H6            1 RES     
   11742 H6         387.3350  -288.9156  -267.4943 H6            1 RES     
   11743 H6         388.9767  -287.2103  -266.5679 H6            1 RES     
   11744 H6         387.3375  -286.5039  -266.7717 H6            1 RES     
   11745 H6         387.9035  -286.9833  -265.1295 H6            1 RES     
   11746 C0         405.0492  -297.7687  -257.5766 C0            1 RES     
   11747 C1         403.5066  -297.6906  -257.5758 C1            1 RES     
   11748 C1         402.9427  -298.6100  -256.7500 C1            1 RES     
   11749 S2         401.2692  -298.6139  -256.7955 S2            1 RES     
   11750 C1         401.2322  -297.3911  -257.9763 C1            1 RES     
   11751 C1         402.5322  -297.0025  -258.3178 C1            1 RES     
   11752 C1         403.9671  -299.3853  -256.1650 C1            1 RES     
   11753 C1         405.1679  -298.9971  -256.6732 C1            1 RES     
   11754 C1         406.2097  -299.8134  -256.2494 C1            1 RES     
   11755 C1         405.7364  -300.8049  -255.3736 C1            1 RES     
   11756 S2         404.0587  -300.6903  -255.1378 S2            1 RES     
   11757 H3         402.7193  -296.2942  -259.1025 H3            1 RES     
   11758 H3         407.2423  -299.7015  -256.5578 H3            1 RES     
   11759 N4         407.4565  -303.0485  -252.9123 N4            1 RES     
   11760 C1         406.7599  -301.9932  -253.4274 C1            1 RES     
   11761 C1         406.5175  -301.8997  -254.8088 C1            1 RES     
   11762 C1         406.9884  -302.9250  -255.6309 C1            1 RES     
   11763 N4         406.7733  -302.9858  -256.9701 N4            1 RES     
   11764 S2         407.4913  -304.4182  -257.3758 S2            1 RES     
   11765 N4         408.0777  -304.9877  -255.9370 N4            1 RES     
   11766 C1         407.6921  -304.0198  -255.0692 C1            1 RES     
   11767 C1         407.9307  -304.0559  -253.6978 C1            1 RES     
   11768 H5         406.3992  -301.2162  -252.7591 H5            1 RES     
   11769 C0         405.8845  -296.6022  -256.9407 C0            1 RES     
   11770 C0         406.0769  -296.1909  -255.4322 C0            1 RES     
   11771 C0         406.9202  -294.8682  -255.4734 C0            1 RES     
   11772 C0         407.3290  -294.2653  -254.1237 C0            1 RES     
   11773 C0         408.1102  -292.9400  -254.2858 C0            1 RES     
   11774 C0         409.4587  -293.0410  -255.0323 C0            1 RES     
   11775 C0         410.4480  -294.0642  -254.4473 C0            1 RES     
   11776 C0         410.7846  -293.8005  -252.9688 C0            1 RES     
   11777 C0         411.7279  -294.8548  -252.3720 C0            1 RES     
   11778 C0         413.1392  -294.8195  -252.9825 C0            1 RES     
   11779 C0         414.1061  -295.7996  -252.2992 C0            1 RES     
   11780 C0         413.7245  -297.2657  -252.5071 C0            1 RES     
   11781 C0         404.8273  -296.0615  -254.5011 C0            1 RES     
   11782 C0         403.7656  -294.9584  -254.7988 C0            1 RES     
   11783 C0         402.4079  -295.6274  -255.0335 C0            1 RES     
   11784 C0         401.2949  -294.7904  -255.6577 C0            1 RES     
   11785 C0         400.5503  -293.8489  -254.7225 C0            1 RES     
   11786 C0         399.4488  -293.1456  -255.5431 C0            1 RES     
   11787 C0         398.4817  -292.3038  -254.7075 C0            1 RES     
   11788 C0         397.5962  -293.1636  -253.8031 C0            1 RES     
   11789 H6         405.5547  -295.7105  -257.4096 H6            1 RES     
   11790 H6         406.9260  -296.7934  -257.2849 H6            1 RES     
   11791 H6         406.6948  -296.9883  -254.9621 H6            1 RES     
   11792 H6         406.3497  -294.0869  -256.0217 H6            1 RES     
   11793 H6         407.8460  -295.0751  -256.0518 H6            1 RES     
   11794 H6         407.9214  -295.0002  -253.5418 H6            1 RES     
   11795 H6         406.4172  -294.0157  -253.5444 H6            1 RES     
   11796 H6         408.2910  -292.5205  -253.2746 H6            1 RES     
   11797 H6         407.4739  -292.2024  -254.8233 H6            1 RES     
   11798 H6         409.9329  -292.0342  -255.0249 H6            1 RES     
   11799 H6         409.2787  -293.3031  -256.0968 H6            1 RES     
   11800 H6         410.0241  -295.0851  -254.5528 H6            1 RES     
   11801 H6         411.3722  -294.0166  -255.0599 H6            1 RES     
   11802 H6         409.8497  -293.8506  -252.3743 H6            1 RES     
   11803 H6         411.2219  -292.7852  -252.8477 H6            1 RES     
   11804 H6         411.8168  -294.6472  -251.2833 H6            1 RES     
   11805 H6         411.2647  -295.8558  -252.4988 H6            1 RES     
   11806 H6         413.1085  -295.0462  -254.0684 H6            1 RES     
   11807 H6         413.5474  -293.7939  -252.8496 H6            1 RES     
   11808 H6         414.1602  -295.5788  -251.2108 H6            1 RES     
   11809 H6         415.1176  -295.6459  -252.7333 H6            1 RES     
   11810 H6         412.7427  -297.4973  -252.0470 H6            1 RES     
   11811 H6         413.6882  -297.5018  -253.5918 H6            1 RES     
   11812 H6         414.4865  -297.9151  -252.0275 H6            1 RES     
   11813 H6         405.1954  -295.8801  -253.4686 H6            1 RES     
   11814 H6         404.3541  -297.0630  -254.4140 H6            1 RES     
   11815 H6         403.6656  -294.2631  -253.9353 H6            1 RES     
   11816 H6         404.0697  -294.3663  -255.6858 H6            1 RES     
   11817 H6         402.0497  -296.1795  -254.1392 H6            1 RES     
   11818 H6         402.6191  -296.3501  -255.7928 H6            1 RES     
   11819 H6         401.6937  -294.2525  -256.5212 H6            1 RES     
   11820 H6         400.5385  -295.5120  -256.0420 H6            1 RES     
   11821 H6         400.1069  -294.4704  -253.9158 H6            1 RES     
   11822 H6         401.2340  -293.0984  -254.2726 H6            1 RES     
   11823 H6         399.9455  -292.4861  -256.2904 H6            1 RES     
   11824 H6         398.8444  -293.8935  -256.1052 H6            1 RES     
   11825 H6         397.8107  -291.7628  -255.4105 H6            1 RES     
   11826 H6         399.0413  -291.5545  -254.1090 H6            1 RES     
   11827 H6         398.1947  -293.7061  -253.0449 H6            1 RES     
   11828 H6         396.8692  -292.5159  -253.2725 H6            1 RES     
   11829 H6         397.0283  -293.9012  -254.4132 H6            1 RES     
   11830 C0         405.4471  -298.0355  -259.0820 C0            1 RES     
   11831 C0         406.2186  -297.0143  -260.0350 C0            1 RES     
   11832 C0         405.9030  -297.4558  -261.5040 C0            1 RES     
   11833 C0         406.7523  -296.7807  -262.5998 C0            1 RES     
   11834 C0         406.3924  -297.2262  -264.0281 C0            1 RES     
   11835 C0         406.5539  -298.7287  -264.3204 C0            1 RES     
   11836 C0         407.9388  -299.3126  -263.9956 C0            1 RES     
   11837 C0         409.0895  -298.6071  -264.7347 C0            1 RES     
   11838 C0         410.4670  -299.1991  -264.3953 C0            1 RES     
   11839 C0         410.6413  -300.6409  -264.9051 C0            1 RES     
   11840 C0         412.0582  -301.1906  -264.6782 C0            1 RES     
   11841 C0         412.4135  -301.3513  -263.2000 C0            1 RES     
   11842 C0         406.1966  -295.4342  -259.8945 C0            1 RES     
   11843 C0         404.9112  -294.6016  -260.1635 C0            1 RES     
   11844 C0         404.2774  -294.0666  -258.8668 C0            1 RES     
   11845 C0         402.9783  -293.2916  -259.0130 C0            1 RES     
   11846 C0         403.0723  -291.8909  -259.6016 C0            1 RES     
   11847 C0         401.6715  -291.2564  -259.4837 C0            1 RES     
   11848 C0         401.6064  -289.7823  -259.8875 C0            1 RES     
   11849 C0         402.3727  -288.8804  -258.9189 C0            1 RES     
   11850 H6         404.5405  -298.4048  -259.6155 H6            1 RES     
   11851 H6         406.0783  -298.9527  -259.0984 H6            1 RES     
   11852 H6         407.2935  -297.2400  -259.8459 H6            1 RES     
   11853 H6         404.8299  -297.2617  -261.7187 H6            1 RES     
   11854 H6         406.0722  -298.5520  -261.5723 H6            1 RES     
   11855 H6         407.8279  -296.9684  -262.3985 H6            1 RES     
   11856 H6         406.5808  -295.6868  -262.6003 H6            1 RES     
   11857 H6         407.0315  -296.6518  -264.7323 H6            1 RES     
   11858 H6         405.3394  -296.9417  -264.2455 H6            1 RES     
   11859 H6         406.3328  -298.8912  -265.3981 H6            1 RES     
   11860 H6         405.7955  -299.2981  -263.7419 H6            1 RES     
   11861 H6         408.1184  -299.2560  -262.9007 H6            1 RES     
   11862 H6         407.9064  -300.3845  -264.2785 H6            1 RES     
   11863 H6         409.1146  -297.5413  -264.4256 H6            1 RES     
   11864 H6         408.9237  -298.6469  -265.8331 H6            1 RES     
   11865 H6         411.2363  -298.5631  -264.8852 H6            1 RES     
   11866 H6         410.6195  -299.1451  -263.2964 H6            1 RES     
   11867 H6         409.9144  -301.3251  -264.4209 H6            1 RES     
   11868 H6         410.4501  -300.6452  -266.0004 H6            1 RES     
   11869 H6         412.8026  -300.5287  -265.1717 H6            1 RES     
   11870 H6         412.1178  -302.1932  -265.1541 H6            1 RES     
   11871 H6         412.4235  -300.3729  -262.6787 H6            1 RES     
   11872 H6         411.6869  -302.0279  -262.7018 H6            1 RES     
   11873 H6         413.4277  -301.7949  -263.1132 H6            1 RES     
   11874 H6         406.9348  -295.0783  -260.6365 H6            1 RES     
   11875 H6         406.7260  -295.0688  -258.9946 H6            1 RES     
   11876 H6         405.2114  -293.6866  -260.7202 H6            1 RES     
   11877 H6         404.2018  -295.1629  -260.8047 H6            1 RES     
   11878 H6         405.0181  -293.4597  -258.2983 H6            1 RES     
   11879 H6         403.9741  -294.8965  -258.2383 H6            1 RES     
   11880 H6         402.2293  -293.9078  -259.5563 H6            1 RES     
   11881 H6         402.6308  -293.1280  -257.9796 H6            1 RES     
   11882 H6         403.8114  -291.3199  -259.0008 H6            1 RES     
   11883 H6         403.4059  -291.9214  -260.6598 H6            1 RES     
   11884 H6         400.9754  -291.8362  -260.1291 H6            1 RES     
   11885 H6         401.2999  -291.3323  -258.4358 H6            1 RES     
   11886 H6         400.5375  -289.4769  -259.8523 H6            1 RES     
   11887 H6         401.9784  -289.6534  -260.9233 H6            1 RES     
   11888 H6         403.4583  -289.1021  -258.9313 H6            1 RES     
   11889 H6         402.2314  -287.8208  -259.2155 H6            1 RES     
   11890 H6         401.9861  -289.0101  -257.8842 H6            1 RES     
   11891 C0         411.9394  -307.2200  -251.8279 C0            1 RES     
   11892 C1         410.5793  -306.5877  -252.1965 C1            1 RES     
   11893 C1         409.5481  -307.4608  -252.0566 C1            1 RES     
   11894 S2         408.0712  -306.8353  -252.5361 S2            1 RES     
   11895 C1         408.7724  -305.3572  -252.9991 C1            1 RES     
   11896 C1         410.1530  -305.3797  -252.7734 C1            1 RES     
   11897 C1         410.0613  -308.7081  -251.6399 C1            1 RES     
   11898 C1         411.4187  -308.6370  -251.5825 C1            1 RES     
   11899 C1         412.0016  -309.8703  -251.3172 C1            1 RES     
   11900 C1         411.0157  -310.8563  -251.1435 C1            1 RES     
   11901 S2         409.4509  -310.2241  -251.3308 S2            1 RES     
   11902 H3         410.7849  -304.5651  -253.0726 H3            1 RES     
   11903 H3         413.0692  -310.0453  -251.2586 H3            1 RES     
   11904 N4         411.0886  -314.2755  -249.6094 N4            1 RES     
   11905 C1         410.9025  -312.9307  -249.7538 C1            1 RES     
   11906 C1         411.2489  -312.2834  -250.9525 C1            1 RES     
   11907 C1         411.7647  -313.0575  -251.9935 C1            1 RES     
   11908 N4         412.0847  -312.5681  -253.2189 N4            1 RES     
   11909 S2         412.5675  -313.9282  -254.0244 S2            1 RES     
   11910 N4         412.4003  -315.1325  -252.9018 N4            1 RES     
   11911 C1         411.9299  -314.4552  -251.8254 C1            1 RES     
   11912 C1         411.5969  -315.0479  -250.6103 C1            1 RES     
   11913 H5         410.4905  -312.3583  -248.9272 H5            1 RES     
   11914 C0         412.6940  -306.7381  -250.5390 C0            1 RES     
   11915 C0         412.3650  -306.9750  -249.0166 C0            1 RES     
   11916 C0         413.4270  -306.1270  -248.2322 C0            1 RES     
   11917 C0         413.3960  -306.2226  -246.7018 C0            1 RES     
   11918 C0         414.4505  -305.3080  -246.0354 C0            1 RES     
   11919 C0         415.9249  -305.6311  -246.3635 C0            1 RES     
   11920 C0         416.3519  -307.0798  -246.0682 C0            1 RES     
   11921 C0         416.1307  -307.4864  -244.6005 C0            1 RES     
   11922 C0         416.5051  -308.9491  -244.3213 C0            1 RES     
   11923 C0         418.0123  -309.2246  -244.4554 C0            1 RES     
   11924 C0         418.3902  -310.6618  -244.0628 C0            1 RES     
   11925 C0         417.8063  -311.7166  -245.0034 C0            1 RES     
   11926 C0         410.9128  -306.7273  -248.4923 C0            1 RES     
   11927 C0         410.3262  -305.2825  -248.5256 C0            1 RES     
   11928 C0         409.0580  -305.2818  -249.3845 C0            1 RES     
   11929 C0         408.4947  -303.9353  -249.8298 C0            1 RES     
   11930 C0         407.6716  -303.1725  -248.8021 C0            1 RES     
   11931 C0         407.1661  -301.8777  -249.4723 C0            1 RES     
   11932 C0         406.1614  -301.0851  -248.6329 C0            1 RES     
   11933 C0         404.8255  -301.8161  -248.4834 C0            1 RES     
   11934 H6         412.7812  -305.6849  -250.6217 H6            1 RES     
   11935 H6         413.7165  -307.1659  -250.6457 H6            1 RES     
   11936 H6         412.5555  -308.0527  -248.8146 H6            1 RES     
   11937 H6         413.3059  -305.0535  -248.4956 H6            1 RES     
   11938 H6         414.4346  -306.4449  -248.5758 H6            1 RES     
   11939 H6         413.5337  -307.2758  -246.3828 H6            1 RES     
   11940 H6         412.4100  -305.8733  -246.3342 H6            1 RES     
   11941 H6         414.3082  -305.3614  -244.9362 H6            1 RES     
   11942 H6         414.2569  -304.2518  -246.3267 H6            1 RES     
   11943 H6         416.5684  -304.9377  -245.7773 H6            1 RES     
   11944 H6         416.1238  -305.4235  -247.4366 H6            1 RES     
   11945 H6         415.7887  -307.7698  -246.7313 H6            1 RES     
   11946 H6         417.4279  -307.1654  -246.3264 H6            1 RES     
   11947 H6         415.0517  -307.3928  -244.3617 H6            1 RES     
   11948 H6         416.6985  -306.8114  -243.9232 H6            1 RES     
   11949 H6         416.2032  -309.1788  -243.2762 H6            1 RES     
   11950 H6         415.9195  -309.6003  -245.0037 H6            1 RES     
   11951 H6         418.3608  -309.0338  -245.4916 H6            1 RES     
   11952 H6         418.5518  -308.5342  -243.7710 H6            1 RES     
   11953 H6         418.0604  -310.8671  -243.0210 H6            1 RES     
   11954 H6         419.4976  -310.7494  -244.0978 H6            1 RES     
   11955 H6         416.6980  -311.7160  -244.9736 H6            1 RES     
   11956 H6         418.1472  -311.5322  -246.0443 H6            1 RES     
   11957 H6         418.1545  -312.7226  -244.6885 H6            1 RES     
   11958 H6         410.8765  -307.0625  -247.4337 H6            1 RES     
   11959 H6         410.2343  -307.4492  -248.9953 H6            1 RES     
   11960 H6         410.0521  -304.9438  -247.5013 H6            1 RES     
   11961 H6         411.0768  -304.5757  -248.9339 H6            1 RES     
   11962 H6         408.2650  -305.9368  -248.9660 H6            1 RES     
   11963 H6         409.3843  -305.7210  -250.3032 H6            1 RES     
   11964 H6         409.3088  -303.3181  -250.2179 H6            1 RES     
   11965 H6         407.8104  -304.1486  -250.6823 H6            1 RES     
   11966 H6         406.8217  -303.8259  -248.5120 H6            1 RES     
   11967 H6         408.2718  -302.9302  -247.8997 H6            1 RES     
   11968 H6         408.0489  -301.2315  -249.6806 H6            1 RES     
   11969 H6         406.6814  -302.1080  -250.4484 H6            1 RES     
   11970 H6         405.9581  -300.1289  -249.1635 H6            1 RES     
   11971 H6         406.5922  -300.8498  -247.6370 H6            1 RES     
   11972 H6         404.9422  -302.7661  -247.9256 H6            1 RES     
   11973 H6         404.1118  -301.1737  -247.9288 H6            1 RES     
   11974 H6         404.3946  -302.0343  -249.4861 H6            1 RES     
   11975 C0         412.8262  -307.0757  -253.1273 C0            1 RES     
   11976 C0         414.1150  -306.1467  -253.2752 C0            1 RES     
   11977 C0         414.3119  -305.9046  -254.8098 C0            1 RES     
   11978 C0         415.6497  -305.2536  -255.2155 C0            1 RES     
   11979 C0         415.7901  -305.0128  -256.7289 C0            1 RES     
   11980 C0         415.7161  -306.2688  -257.6155 C0            1 RES     
   11981 C0         416.6956  -307.3929  -257.2395 C0            1 RES     
   11982 C0         418.1692  -306.9495  -257.2484 C0            1 RES     
   11983 C0         419.1346  -308.0829  -256.8655 C0            1 RES     
   11984 C0         419.1708  -309.2160  -257.9066 C0            1 RES     
   11985 C0         420.2248  -310.2884  -257.5902 C0            1 RES     
   11986 C0         419.9264  -311.0684  -256.3098 C0            1 RES     
   11987 C0         414.3904  -304.8223  -252.4464 C0            1 RES     
   11988 C0         413.5329  -303.5391  -252.6362 C0            1 RES     
   11989 C0         412.5768  -303.2931  -251.4552 C0            1 RES     
   11990 C0         411.6462  -302.0971  -251.5700 C0            1 RES     
   11991 C0         412.2714  -300.7180  -251.4133 C0            1 RES     
   11992 C0         411.1151  -299.6975  -251.3932 C0            1 RES     
   11993 C0         411.5421  -298.2606  -251.0876 C0            1 RES     
   11994 C0         412.0460  -298.0971  -249.6529 C0            1 RES     
   11995 H6         412.1443  -306.8781  -253.9870 H6            1 RES     
   11996 H6         413.1929  -308.0937  -253.3906 H6            1 RES     
   11997 H6         414.9504  -306.8008  -252.9341 H6            1 RES     
   11998 H6         413.4812  -305.2695  -255.1866 H6            1 RES     
   11999 H6         414.2469  -306.8899  -255.3196 H6            1 RES     
   12000 H6         416.4893  -305.8794  -254.8467 H6            1 RES     
   12001 H6         415.7391  -304.2457  -254.7661 H6            1 RES     
   12002 H6         416.7642  -304.5073  -256.9016 H6            1 RES     
   12003 H6         414.9984  -304.3061  -257.0618 H6            1 RES     
   12004 H6         415.9055  -305.9556  -258.6656 H6            1 RES     
   12005 H6         414.6859  -306.6829  -257.5790 H6            1 RES     
   12006 H6         416.4388  -307.7884  -256.2335 H6            1 RES     
   12007 H6         416.5402  -308.2092  -257.9740 H6            1 RES     
   12008 H6         418.3065  -306.1448  -256.4961 H6            1 RES     
   12009 H6         418.4433  -306.5433  -258.2460 H6            1 RES     
   12010 H6         420.1544  -307.6460  -256.7935 H6            1 RES     
   12011 H6         418.8515  -308.4720  -255.8645 H6            1 RES     
   12012 H6         418.1803  -309.7081  -257.9942 H6            1 RES     
   12013 H6         419.4289  -308.7709  -258.8923 H6            1 RES     
   12014 H6         421.2297  -309.8187  -257.5161 H6            1 RES     
   12015 H6         420.2426  -311.0117  -258.4338 H6            1 RES     
   12016 H6         419.9476  -310.4072  -255.4202 H6            1 RES     
   12017 H6         418.9324  -311.5589  -256.3818 H6            1 RES     
   12018 H6         420.6994  -311.8532  -256.1704 H6            1 RES     
   12019 H6         415.4194  -304.5287  -252.7241 H6            1 RES     
   12020 H6         414.5909  -305.0117  -251.3751 H6            1 RES     
   12021 H6         414.2221  -302.6662  -252.6180 H6            1 RES     
   12022 H6         413.0268  -303.5423  -253.6228 H6            1 RES     
   12023 H6         413.1495  -303.2368  -250.5017 H6            1 RES     
   12024 H6         411.8757  -304.1162  -251.3745 H6            1 RES     
   12025 H6         411.0542  -302.1672  -252.5084 H6            1 RES     
   12026 H6         410.9667  -302.1858  -250.7063 H6            1 RES     
   12027 H6         412.8219  -300.7033  -250.4489 H6            1 RES     
   12028 H6         412.9777  -300.5007  -252.2415 H6            1 RES     
   12029 H6         410.6185  -299.7202  -252.3882 H6            1 RES     
   12030 H6         410.3554  -299.9893  -250.6319 H6            1 RES     
   12031 H6         410.6417  -297.6174  -251.1998 H6            1 RES     
   12032 H6         412.3092  -297.9274  -251.8145 H6            1 RES     
   12033 H6         412.9709  -298.6821  -249.4790 H6            1 RES     
   12034 H6         412.2710  -297.0275  -249.4635 H6            1 RES     
   12035 H6         411.2661  -298.4253  -248.9311 H6            1 RES     
   12036 C0         413.7408  -319.8964  -249.3962 C0            1 RES     
   12037 C1         412.8113  -318.7244  -249.7812 C1            1 RES     
   12038 C1         411.6424  -319.1493  -250.3275 C1            1 RES     
   12039 S2         410.6507  -317.9021  -250.8407 S2            1 RES     
   12040 C1         411.7858  -316.7220  -250.3827 C1            1 RES     
   12041 C1         412.9247  -317.3253  -249.8382 C1            1 RES     
   12042 C1         411.6607  -320.5588  -250.4020 C1            1 RES     
   12043 C1         412.8657  -321.0145  -249.9647 C1            1 RES     
   12044 C1         413.0088  -322.3852  -250.1437 C1            1 RES     
   12045 C1         411.8420  -322.9358  -250.7003 C1            1 RES     
   12046 S2         410.6586  -321.7517  -250.9845 S2            1 RES     
   12047 H3         413.7867  -316.7496  -249.5590 H3            1 RES     
   12048 H3         413.9001  -322.9478  -249.8928 H3            1 RES     
   12049 N4         410.5475  -326.4467  -250.9206 N4            1 RES     
   12050 C1         410.7361  -325.1668  -250.4841 C1            1 RES     
   12051 C1         411.6590  -324.3201  -251.1221 C1            1 RES     
   12052 C1         412.3565  -324.8178  -252.2242 C1            1 RES     
   12053 N4         413.2314  -324.0887  -252.9633 N4            1 RES     
   12054 S2         413.6771  -325.1620  -254.1386 S2            1 RES     
   12055 N4         412.8206  -326.5291  -253.7705 N4            1 RES     
   12056 C1         412.1284  -326.1439  -252.6699 C1            1 RES     
   12057 C1         411.2229  -326.9541  -251.9898 C1            1 RES     
   12058 H5         410.1707  -324.8073  -249.6286 H5            1 RES     
   12059 C0         414.0155  -320.2023  -247.8817 C0            1 RES     
   12060 C0         413.0719  -320.8127  -246.7776 C0            1 RES     
   12061 C0         413.9001  -320.7405  -245.4467 C0            1 RES     
   12062 C0         413.2507  -321.3409  -244.1937 C0            1 RES     
   12063 C0         414.1333  -321.1675  -242.9352 C0            1 RES     
   12064 C0         415.5067  -321.8733  -242.9743 C0            1 RES     
   12065 C0         415.4510  -323.3833  -243.2660 C0            1 RES     
   12066 C0         414.5875  -324.1610  -242.2570 C0            1 RES     
   12067 C0         414.4882  -325.6582  -242.5825 C0            1 RES     
   12068 C0         415.8253  -326.4020  -242.4261 C0            1 RES     
   12069 C0         415.6902  -327.9177  -242.6424 C0            1 RES     
   12070 C0         415.3043  -328.2898  -244.0746 C0            1 RES     
   12071 C0         411.6246  -320.2480  -246.5997 C0            1 RES     
   12072 C0         411.4341  -318.7735  -246.1282 C0            1 RES     
   12073 C0         410.6391  -318.0113  -247.1927 C0            1 RES     
   12074 C0         410.6094  -316.4878  -247.1108 C0            1 RES     
   12075 C0         409.6404  -315.8826  -246.1057 C0            1 RES     
   12076 C0         409.7389  -314.3471  -246.2238 C0            1 RES     
   12077 C0         408.6882  -313.5846  -245.4134 C0            1 RES     
   12078 C0         407.2750  -313.7784  -245.9671 C0            1 RES     
   12079 H6         414.3591  -319.2958  -247.4529 H6            1 RES     
   12080 H6         414.8753  -320.9095  -247.8979 H6            1 RES     
   12081 H6         412.9240  -321.8833  -247.0430 H6            1 RES     
   12082 H6         414.1332  -319.6777  -245.2173 H6            1 RES     
   12083 H6         414.8640  -321.2655  -245.6191 H6            1 RES     
   12084 H6         413.0151  -322.4114  -244.3621 H6            1 RES     
   12085 H6         412.3037  -320.8050  -243.9810 H6            1 RES     
   12086 H6         413.5631  -321.5416  -242.0599 H6            1 RES     
   12087 H6         414.3087  -320.0835  -242.7565 H6            1 RES     
   12088 H6         416.0048  -321.7128  -241.9921 H6            1 RES     
   12089 H6         416.1513  -321.3959  -243.7429 H6            1 RES     
   12090 H6         415.0555  -323.5438  -244.2911 H6            1 RES     
   12091 H6         416.4939  -323.7622  -243.2425 H6            1 RES     
   12092 H6         413.5514  -323.7674  -242.2941 H6            1 RES     
   12093 H6         414.9782  -324.0201  -241.2254 H6            1 RES     
   12094 H6         413.7577  -326.1074  -241.8748 H6            1 RES     
   12095 H6         414.0889  -325.7703  -243.6124 H6            1 RES     
   12096 H6         416.5852  -326.0066  -243.1315 H6            1 RES     
   12097 H6         416.1913  -326.2398  -241.3888 H6            1 RES     
   12098 H6         414.9415  -328.3345  -241.9339 H6            1 RES     
   12099 H6         416.6731  -328.3870  -242.4215 H6            1 RES     
   12100 H6         414.3033  -327.8936  -244.3397 H6            1 RES     
   12101 H6         416.0579  -327.8955  -244.7889 H6            1 RES     
   12102 H6         415.2687  -329.3952  -244.1700 H6            1 RES     
   12103 H6         411.1026  -320.8903  -245.8585 H6            1 RES     
   12104 H6         411.0563  -320.4491  -247.5330 H6            1 RES     
   12105 H6         410.8626  -318.7347  -245.1738 H6            1 RES     
   12106 H6         412.4210  -318.2968  -245.9596 H6            1 RES     
   12107 H6         409.6219  -318.4313  -247.3403 H6            1 RES     
   12108 H6         411.1937  -318.1926  -248.0888 H6            1 RES     
   12109 H6         411.6251  -316.1187  -246.9488 H6            1 RES     
   12110 H6         410.2857  -316.1266  -248.1135 H6            1 RES     
   12111 H6         408.6230  -316.2359  -246.3771 H6            1 RES     
   12112 H6         409.8757  -316.2052  -245.0695 H6            1 RES     
   12113 H6         410.7519  -314.0404  -245.8775 H6            1 RES     
   12114 H6         409.6382  -314.0311  -247.2871 H6            1 RES     
   12115 H6         408.9268  -312.5007  -245.4863 H6            1 RES     
   12116 H6         408.7341  -313.8835  -244.3450 H6            1 RES     
   12117 H6         406.9498  -314.8347  -245.8909 H6            1 RES     
   12118 H6         406.5626  -313.1537  -245.3910 H6            1 RES     
   12119 H6         407.2355  -313.4623  -247.0336 H6            1 RES     
   12120 C0         415.0742  -319.6474  -250.2059 C0            1 RES     
   12121 C0         416.4887  -319.2659  -249.5735 C0            1 RES     
   12122 C0         417.3202  -318.5982  -250.7204 C0            1 RES     
   12123 C0         418.8179  -318.3858  -250.4207 C0            1 RES     
   12124 C0         419.5905  -317.7059  -251.5648 C0            1 RES     
   12125 C0         419.5940  -318.4572  -252.9082 C0            1 RES     
   12126 C0         420.0718  -319.9172  -252.8392 C0            1 RES     
   12127 C0         421.4891  -320.0709  -252.2596 C0            1 RES     
   12128 C0         421.9496  -321.5360  -252.1928 C0            1 RES     
   12129 C0         422.1393  -322.1681  -253.5833 C0            1 RES     
   12130 C0         422.7186  -323.5901  -253.5223 C0            1 RES     
   12131 C0         421.7769  -324.5974  -252.8621 C0            1 RES     
   12132 C0         416.7028  -318.5092  -248.1956 C0            1 RES     
   12133 C0         416.2960  -317.0210  -248.0018 C0            1 RES     
   12134 C0         415.0336  -316.8666  -247.1347 C0            1 RES     
   12135 C0         414.5129  -315.4527  -246.9357 C0            1 RES     
   12136 C0         415.3150  -314.5447  -246.0142 C0            1 RES     
   12137 C0         414.5010  -313.2464  -245.8387 C0            1 RES     
   12138 C0         415.0806  -312.2673  -244.8162 C0            1 RES     
   12139 C0         415.0037  -312.8067  -243.3871 C0            1 RES     
   12140 H6         414.8466  -318.9297  -251.0281 H6            1 RES     
   12141 H6         415.2794  -320.5700  -250.7947 H6            1 RES     
   12142 H6         416.9557  -320.2549  -249.3596 H6            1 RES     
   12143 H6         416.8672  -317.6150  -250.9721 H6            1 RES     
   12144 H6         417.2440  -319.2493  -251.6177 H6            1 RES     
   12145 H6         419.2841  -319.3615  -250.1691 H6            1 RES     
   12146 H6         418.9447  -317.7032  -249.5582 H6            1 RES     
   12147 H6         420.6399  -317.5664  -251.2277 H6            1 RES     
   12148 H6         419.1709  -316.6902  -251.7365 H6            1 RES     
   12149 H6         420.2445  -317.8930  -253.6118 H6            1 RES     
   12150 H6         418.5682  -318.4501  -253.3347 H6            1 RES     
   12151 H6         419.3603  -320.5126  -252.2281 H6            1 RES     
   12152 H6         420.0405  -320.3114  -253.8754 H6            1 RES     
   12153 H6         421.4947  -319.6862  -251.2184 H6            1 RES     
   12154 H6         422.2153  -319.4755  -252.8543 H6            1 RES     
   12155 H6         422.9286  -321.5571  -251.6662 H6            1 RES     
   12156 H6         421.2178  -322.1146  -251.5899 H6            1 RES     
   12157 H6         421.1804  -322.2001  -254.1404 H6            1 RES     
   12158 H6         422.8551  -321.5374  -254.1544 H6            1 RES     
   12159 H6         423.6906  -323.5782  -252.9830 H6            1 RES     
   12160 H6         422.9052  -323.9298  -254.5638 H6            1 RES     
   12161 H6         421.5933  -324.3414  -251.7991 H6            1 RES     
   12162 H6         420.8091  -324.6319  -253.4062 H6            1 RES     
   12163 H6         422.2385  -325.6067  -252.8956 H6            1 RES     
   12164 H6         417.7953  -318.5366  -248.0296 H6            1 RES     
   12165 H6         416.4194  -319.1168  -247.3157 H6            1 RES     
   12166 H6         417.0975  -316.5257  -247.4106 H6            1 RES     
   12167 H6         416.2306  -316.4973  -248.9770 H6            1 RES     
   12168 H6         415.1832  -317.3574  -246.1463 H6            1 RES     
   12169 H6         414.1936  -317.3486  -247.6223 H6            1 RES     
   12170 H6         414.3370  -314.9720  -247.9225 H6            1 RES     
   12171 H6         413.5477  -315.5790  -246.4179 H6            1 RES     
   12172 H6         415.4314  -315.0671  -245.0411 H6            1 RES     
   12173 H6         416.3186  -314.3294  -246.4365 H6            1 RES     
   12174 H6         414.4431  -312.7400  -246.8274 H6            1 RES     
   12175 H6         413.4594  -313.4834  -245.5211 H6            1 RES     
   12176 H6         414.4634  -311.3430  -244.8570 H6            1 RES     
   12177 H6         416.1244  -312.0092  -245.0837 H6            1 RES     
   12178 H6         415.6316  -313.7110  -243.2609 H6            1 RES     
   12179 H6         415.3672  -312.0307  -242.6828 H6            1 RES     
   12180 H6         413.9516  -313.0541  -243.1250 H6            1 RES     
   12181 C0         411.5863  -332.3476  -252.5861 C0            1 RES     
   12182 C1         411.1672  -330.8616  -252.6278 C1            1 RES     
   12183 C1         410.2440  -330.6114  -253.5923 C1            1 RES     
   12184 S2         409.8363  -328.9933  -253.7257 S2            1 RES     
   12185 C1         410.9314  -328.5481  -252.5036 C1            1 RES     
   12186 C1         411.6008  -329.6748  -252.0137 C1            1 RES     
   12187 C1         409.9773  -331.8100  -254.2887 C1            1 RES     
   12188 C1         410.7804  -332.7964  -253.8061 C1            1 RES     
   12189 C1         410.6747  -333.9709  -254.5412 C1            1 RES     
   12190 C1         409.7295  -333.8267  -255.5708 C1            1 RES     
   12191 S2         409.0469  -332.2720  -255.5878 S2            1 RES     
   12192 H3         412.3883  -329.5898  -251.2891 H3            1 RES     
   12193 H3         411.2473  -334.8702  -254.3480 H3            1 RES     
   12194 N4         407.8825  -336.3091  -257.6866 N4            1 RES     
   12195 C1         408.1631  -335.4235  -256.6860 C1            1 RES     
   12196 C1         409.4249  -334.8097  -256.6046 C1            1 RES     
   12197 C1         410.3698  -335.1141  -257.5862 C1            1 RES     
   12198 N4         411.6024  -334.5491  -257.6567 N4            1 RES     
   12199 S2         412.2236  -335.2332  -259.0271 S2            1 RES     
   12200 N4         411.0116  -336.2277  -259.5566 N4            1 RES     
   12201 C1         410.0472  -336.0219  -258.6259 C1            1 RES     
   12202 C1         408.7925  -336.6252  -258.6502 C1            1 RES     
   12203 H5         407.4024  -335.2016  -255.9425 H5            1 RES     
   12204 C0         411.1695  -333.2361  -251.3615 C0            1 RES     
   12205 C0         409.7587  -333.7995  -250.9441 C0            1 RES     
   12206 C0         409.9918  -334.5007  -249.5598 C0            1 RES     
   12207 C0         408.7874  -335.2147  -248.9338 C0            1 RES     
   12208 C0         409.1199  -335.8234  -247.5511 C0            1 RES     
   12209 C0         410.2049  -336.9228  -247.5434 C0            1 RES     
   12210 C0         409.9352  -338.1059  -248.4898 C0            1 RES     
   12211 C0         408.5961  -338.8103  -248.2082 C0            1 RES     
   12212 C0         408.3034  -339.9546  -249.1891 C0            1 RES     
   12213 C0         409.2709  -341.1411  -249.0415 C0            1 RES     
   12214 C0         408.8994  -342.3262  -249.9470 C0            1 RES     
   12215 C0         409.0343  -342.0110  -251.4373 C0            1 RES     
   12216 C0         408.5219  -332.8430  -250.9167 C0            1 RES     
   12217 C0         408.4936  -331.6625  -249.8978 C0            1 RES     
   12218 C0         408.3704  -330.3447  -250.6688 C0            1 RES     
   12219 C0         408.6493  -329.0460  -249.9175 C0            1 RES     
   12220 C0         407.5239  -328.5158  -249.0413 C0            1 RES     
   12221 C0         407.9984  -327.1847  -248.4214 C0            1 RES     
   12222 C0         406.9114  -326.4212  -247.6613 C0            1 RES     
   12223 C0         405.8241  -325.8795  -248.5917 C0            1 RES     
   12224 H6         411.5088  -332.7272  -250.4957 H6            1 RES     
   12225 H6         411.7867  -334.1565  -251.4696 H6            1 RES     
   12226 H6         409.4935  -334.5784  -251.6935 H6            1 RES     
   12227 H6         410.3454  -333.7473  -248.8223 H6            1 RES     
   12228 H6         410.8036  -335.2478  -249.6913 H6            1 RES     
   12229 H6         408.4060  -335.9949  -249.6235 H6            1 RES     
   12230 H6         407.9772  -334.4783  -248.7585 H6            1 RES     
   12231 H6         408.1845  -336.2403  -247.1239 H6            1 RES     
   12232 H6         409.4466  -335.0130  -246.8624 H6            1 RES     
   12233 H6         410.2998  -337.3061  -246.5030 H6            1 RES     
   12234 H6         411.1877  -336.4807  -247.8134 H6            1 RES     
   12235 H6         409.9487  -337.7452  -249.5399 H6            1 RES     
   12236 H6         410.7730  -338.8234  -248.3676 H6            1 RES     
   12237 H6         407.7729  -338.0777  -248.3336 H6            1 RES     
   12238 H6         408.5713  -339.1883  -247.1627 H6            1 RES     
   12239 H6         407.2741  -340.3197  -248.9807 H6            1 RES     
   12240 H6         408.3262  -339.5491  -250.2224 H6            1 RES     
   12241 H6         410.3137  -340.8340  -249.2644 H6            1 RES     
   12242 H6         409.2266  -341.4938  -247.9880 H6            1 RES     
   12243 H6         407.8606  -342.6569  -249.7281 H6            1 RES     
   12244 H6         409.5861  -343.1681  -249.7132 H6            1 RES     
   12245 H6         408.3326  -341.2104  -251.7466 H6            1 RES     
   12246 H6         410.0748  -341.6995  -251.6701 H6            1 RES     
   12247 H6         408.7951  -342.9199  -252.0281 H6            1 RES     
   12248 H6         407.6228  -333.4628  -250.7124 H6            1 RES     
   12249 H6         408.3363  -332.4858  -251.9523 H6            1 RES     
   12250 H6         407.6175  -331.7495  -249.2166 H6            1 RES     
   12251 H6         409.4141  -331.6705  -249.2794 H6            1 RES     
   12252 H6         407.4272  -330.2839  -251.2515 H6            1 RES     
   12253 H6         409.1769  -330.3946  -251.3691 H6            1 RES     
   12254 H6         409.5742  -329.1554  -249.3460 H6            1 RES     
   12255 H6         408.8337  -328.2688  -250.6937 H6            1 RES     
   12256 H6         406.6438  -328.3545  -249.6993 H6            1 RES     
   12257 H6         407.2559  -329.2390  -248.2423 H6            1 RES     
   12258 H6         408.8348  -327.4105  -247.7216 H6            1 RES     
   12259 H6         408.3957  -326.5071  -249.2111 H6            1 RES     
   12260 H6         407.3931  -325.5471  -247.1705 H6            1 RES     
   12261 H6         406.4669  -327.0657  -246.8739 H6            1 RES     
   12262 H6         405.2698  -326.6991  -249.0899 H6            1 RES     
   12263 H6         405.1005  -325.2780  -248.0050 H6            1 RES     
   12264 H6         406.2773  -325.2232  -249.3680 H6            1 RES     
   12265 C0         413.1495  -332.3411  -252.8137 C0            1 RES     
   12266 C0         414.2487  -332.7484  -251.7310 C0            1 RES     
   12267 C0         415.5889  -332.0797  -252.1883 C0            1 RES     
   12268 C0         416.8554  -332.5485  -251.4438 C0            1 RES     
   12269 C0         418.1447  -331.8486  -251.9088 C0            1 RES     
   12270 C0         418.5084  -332.0344  -253.3927 C0            1 RES     
   12271 C0         418.5845  -333.4945  -253.8691 C0            1 RES     
   12272 C0         419.5882  -334.3469  -253.0728 C0            1 RES     
   12273 C0         419.6485  -335.8044  -253.5579 C0            1 RES     
   12274 C0         420.2235  -335.9392  -254.9793 C0            1 RES     
   12275 C0         420.4016  -337.4009  -255.4186 C0            1 RES     
   12276 C0         419.0787  -338.1543  -255.5586 C0            1 RES     
   12277 C0         414.0667  -332.6496  -250.1581 C0            1 RES     
   12278 C0         413.9573  -331.2819  -249.4263 C0            1 RES     
   12279 C0         412.5243  -330.9858  -248.9486 C0            1 RES     
   12280 C0         412.2946  -329.6426  -248.2759 C0            1 RES     
   12281 C0         412.8503  -329.4707  -246.8692 C0            1 RES     
   12282 C0         412.3424  -328.1116  -246.3458 C0            1 RES     
   12283 C0         412.6755  -327.8316  -244.8792 C0            1 RES     
   12284 C0         411.9266  -328.7636  -243.9254 C0            1 RES     
   12285 H6         413.4280  -331.3534  -253.2495 H6            1 RES     
   12286 H6         413.3593  -333.0097  -253.6791 H6            1 RES     
   12287 H6         414.3625  -333.8478  -251.8736 H6            1 RES     
   12288 H6         415.5011  -330.9774  -252.0769 H6            1 RES     
   12289 H6         415.7286  -332.3040  -253.2677 H6            1 RES     
   12290 H6         416.9567  -333.6491  -251.5486 H6            1 RES     
   12291 H6         416.7814  -332.3035  -250.3666 H6            1 RES     
   12292 H6         418.9801  -332.2291  -251.2830 H6            1 RES     
   12293 H6         418.0625  -330.7582  -251.7057 H6            1 RES     
   12294 H6         419.4903  -331.5421  -253.5665 H6            1 RES     
   12295 H6         417.7616  -331.5051  -254.0222 H6            1 RES     
   12296 H6         417.5776  -333.9595  -253.8043 H6            1 RES     
   12297 H6         418.8757  -333.4653  -254.9389 H6            1 RES     
   12298 H6         419.2699  -334.3767  -252.0098 H6            1 RES     
   12299 H6         420.6017  -333.8931  -253.1198 H6            1 RES     
   12300 H6         420.3112  -336.3634  -252.8618 H6            1 RES     
   12301 H6         418.6305  -336.2446  -253.4977 H6            1 RES     
   12302 H6         419.5789  -335.4229  -255.7202 H6            1 RES     
   12303 H6         421.2263  -335.4591  -254.9929 H6            1 RES     
   12304 H6         421.0603  -337.9332  -254.6985 H6            1 RES     
   12305 H6         420.9016  -337.4026  -256.4111 H6            1 RES     
   12306 H6         418.5544  -338.2335  -254.5850 H6            1 RES     
   12307 H6         418.4206  -337.6415  -256.2920 H6            1 RES     
   12308 H6         419.2803  -339.1837  -255.9227 H6            1 RES     
   12309 H6         414.9709  -333.1309  -249.7423 H6            1 RES     
   12310 H6         413.3339  -333.3748  -249.7572 H6            1 RES     
   12311 H6         414.5506  -331.3521  -248.4880 H6            1 RES     
   12312 H6         414.3976  -330.4684  -250.0377 H6            1 RES     
   12313 H6         412.1613  -331.8064  -248.2889 H6            1 RES     
   12314 H6         411.8590  -330.9259  -249.8026 H6            1 RES     
   12315 H6         412.6313  -328.8217  -248.9456 H6            1 RES     
   12316 H6         411.2018  -329.5771  -248.1449 H6            1 RES     
   12317 H6         412.4566  -330.3010  -246.2456 H6            1 RES     
   12318 H6         413.9597  -329.5063  -246.8684 H6            1 RES     
   12319 H6         412.7908  -327.3111  -246.9746 H6            1 RES     
   12320 H6         411.2354  -328.0445  -246.4556 H6            1 RES     
   12321 H6         412.3453  -326.7930  -244.6578 H6            1 RES     
   12322 H6         413.7696  -327.8986  -244.7167 H6            1 RES     
   12323 H6         412.2373  -329.8184  -244.0622 H6            1 RES     
   12324 H6         412.1467  -328.4699  -242.8786 H6            1 RES     
   12325 H6         410.8297  -328.6824  -244.0899 H6            1 RES     
   12326 C0         408.1559  -341.2114  -261.5033 C0            1 RES     
   12327 C1         408.1274  -339.7597  -260.9765 C1            1 RES     
   12328 C1         407.7371  -338.8719  -261.9276 C1            1 RES     
   12329 S2         407.7840  -337.2785  -261.4162 S2            1 RES     
   12330 C1         408.3807  -337.7177  -259.8858 C1            1 RES     
   12331 C1         408.5365  -339.1057  -259.8023 C1            1 RES     
   12332 C1         407.5067  -339.5688  -263.1334 C1            1 RES     
   12333 C1         407.8158  -340.8819  -262.9576 C1            1 RES     
   12334 C1         407.7496  -341.6037  -264.1433 C1            1 RES     
   12335 C1         407.3418  -340.7768  -265.2036 C1            1 RES     
   12336 S2         407.0835  -339.1778  -264.6938 S2            1 RES     
   12337 H3         408.9740  -339.5713  -258.9397 H3            1 RES     
   12338 H3         407.9857  -342.6571  -264.2353 H3            1 RES     
   12339 N4         405.9731  -341.5130  -268.6146 N4            1 RES     
   12340 C1         406.0271  -341.1968  -267.2875 C1            1 RES     
   12341 C1         407.2577  -341.1569  -266.6093 C1            1 RES     
   12342 C1         408.4189  -341.4266  -267.3358 C1            1 RES     
   12343 N4         409.6721  -341.3658  -266.8170 N4            1 RES     
   12344 S2         410.6128  -341.7105  -268.1315 S2            1 RES     
   12345 N4         409.5183  -341.9425  -269.3508 N4            1 RES     
   12346 C1         408.3378  -341.7332  -268.7174 C1            1 RES     
   12347 C1         407.0936  -341.7863  -269.3402 C1            1 RES     
   12348 H5         405.1055  -340.9834  -266.7530 H5            1 RES     
   12349 C0         407.1064  -342.2496  -260.9708 C0            1 RES     
   12350 C0         405.5584  -342.3637  -261.2401 C0            1 RES     
   12351 C0         405.0680  -343.5335  -260.3162 C0            1 RES     
   12352 C0         403.5889  -343.9254  -260.4217 C0            1 RES     
   12353 C0         403.2084  -345.0512  -259.4313 C0            1 RES     
   12354 C0         403.9305  -346.4010  -259.6375 C0            1 RES     
   12355 C0         403.7988  -346.9970  -261.0501 C0            1 RES     
   12356 C0         402.3369  -347.2123  -261.4801 C0            1 RES     
   12357 C0         402.2069  -347.7545  -262.9107 C0            1 RES     
   12358 C0         402.7498  -349.1849  -263.0678 C0            1 RES     
   12359 C0         402.5109  -349.7594  -264.4733 C0            1 RES     
   12360 C0         403.2860  -349.0213  -265.5655 C0            1 RES     
   12361 C0         404.6555  -341.0938  -261.1084 C0            1 RES     
   12362 C0         404.4919  -340.4159  -259.7133 C0            1 RES     
   12363 C0         404.9765  -338.9659  -259.8066 C0            1 RES     
   12364 C0         405.2184  -338.2060  -258.5056 C0            1 RES     
   12365 C0         403.9874  -337.6386  -257.8141 C0            1 RES     
   12366 C0         404.4627  -336.8768  -256.5590 C0            1 RES     
   12367 C0         403.3631  -336.0819  -255.8509 C0            1 RES     
   12368 C0         402.8776  -334.8939  -256.6841 C0            1 RES     
   12369 H6         407.1824  -342.2336  -259.9136 H6            1 RES     
   12370 H6         407.4960  -343.2333  -261.3174 H6            1 RES     
   12371 H6         405.4432  -342.6803  -262.3008 H6            1 RES     
   12372 H6         405.2612  -343.2672  -259.2540 H6            1 RES     
   12373 H6         405.6788  -344.4308  -260.5534 H6            1 RES     
   12374 H6         403.3463  -344.2212  -261.4625 H6            1 RES     
   12375 H6         402.9601  -343.0532  -260.1517 H6            1 RES     
   12376 H6         402.1134  -345.2163  -259.5011 H6            1 RES     
   12377 H6         403.4094  -344.7089  -258.3919 H6            1 RES     
   12378 H6         403.5220  -347.1267  -258.8993 H6            1 RES     
   12379 H6         405.0117  -346.2859  -259.4098 H6            1 RES     
   12380 H6         404.3029  -346.3273  -261.7785 H6            1 RES     
   12381 H6         404.3399  -347.9660  -261.0508 H6            1 RES     
   12382 H6         401.8135  -346.2345  -261.4716 H6            1 RES     
   12383 H6         401.8207  -347.8913  -260.7665 H6            1 RES     
   12384 H6         401.1254  -347.7648  -263.1683 H6            1 RES     
   12385 H6         402.7226  -347.0552  -263.6019 H6            1 RES     
   12386 H6         403.8363  -349.2246  -262.8454 H6            1 RES     
   12387 H6         402.2188  -349.8375  -262.3410 H6            1 RES     
   12388 H6         401.4244  -349.7402  -264.7088 H6            1 RES     
   12389 H6         402.8457  -350.8191  -264.4746 H6            1 RES     
   12390 H6         402.9583  -347.9657  -265.6510 H6            1 RES     
   12391 H6         404.3752  -349.0530  -265.3500 H6            1 RES     
   12392 H6         403.1029  -349.5146  -266.5430 H6            1 RES     
   12393 H6         403.6353  -341.3705  -261.4507 H6            1 RES     
   12394 H6         404.9752  -340.3592  -261.8782 H6            1 RES     
   12395 H6         403.4233  -340.4057  -259.4020 H6            1 RES     
   12396 H6         405.0693  -340.9739  -258.9484 H6            1 RES     
   12397 H6         404.3766  -338.3663  -260.5232 H6            1 RES     
   12398 H6         405.9602  -339.0623  -260.2145 H6            1 RES     
   12399 H6         405.7956  -338.8369  -257.8252 H6            1 RES     
   12400 H6         405.8598  -337.3337  -258.7671 H6            1 RES     
   12401 H6         403.4957  -336.9493  -258.5328 H6            1 RES     
   12402 H6         403.2744  -338.4414  -257.5306 H6            1 RES     
   12403 H6         404.8847  -337.6203  -255.8453 H6            1 RES     
   12404 H6         405.2773  -336.1640  -256.8213 H6            1 RES     
   12405 H6         403.7943  -335.6730  -254.9107 H6            1 RES     
   12406 H6         402.5147  -336.7481  -255.5879 H6            1 RES     
   12407 H6         402.3967  -335.2266  -257.6250 H6            1 RES     
   12408 H6         402.1347  -334.3121  -256.1017 H6            1 RES     
   12409 H6         403.7322  -334.2246  -256.9300 H6            1 RES     
   12410 C0         409.6422  -341.6997  -261.2842 C0            1 RES     
   12411 C0         410.1084  -342.8286  -260.2573 C0            1 RES     
   12412 C0         411.6324  -342.5839  -259.9929 C0            1 RES     
   12413 C0         412.3671  -343.7102  -259.2382 C0            1 RES     
   12414 C0         413.8555  -343.4172  -258.9796 C0            1 RES     
   12415 C0         414.7214  -343.1979  -260.2331 C0            1 RES     
   12416 C0         414.6527  -344.3223  -261.2798 C0            1 RES     
   12417 C0         415.0474  -345.7017  -260.7234 C0            1 RES     
   12418 C0         414.9687  -346.8152  -261.7804 C0            1 RES     
   12419 C0         416.0098  -346.6508  -262.9020 C0            1 RES     
   12420 C0         416.0174  -347.8268  -263.8911 C0            1 RES     
   12421 C0         414.7245  -347.9446  -264.6983 C0            1 RES     
   12422 C0         409.3507  -343.2204  -258.9197 C0            1 RES     
   12423 C0         409.2689  -342.2519  -257.7059 C0            1 RES     
   12424 C0         407.8678  -341.6363  -257.5407 C0            1 RES     
   12425 C0         407.6963  -340.6244  -256.4199 C0            1 RES     
   12426 C0         407.6786  -341.1658  -254.9973 C0            1 RES     
   12427 C0         407.3209  -339.9867  -254.0696 C0            1 RES     
   12428 C0         407.1049  -340.3740  -252.6055 C0            1 RES     
   12429 C0         405.8556  -341.2344  -252.4106 C0            1 RES     
   12430 H6         410.2806  -340.7978  -261.1358 H6            1 RES     
   12431 H6         410.0209  -342.0549  -262.2693 H6            1 RES     
   12432 H6         410.0224  -343.7708  -260.8463 H6            1 RES     
   12433 H6         411.7545  -341.6379  -259.4223 H6            1 RES     
   12434 H6         412.1310  -342.4555  -260.9777 H6            1 RES     
   12435 H6         412.2547  -344.6618  -259.7988 H6            1 RES     
   12436 H6         411.9326  -343.8439  -258.2286 H6            1 RES     
   12437 H6         414.2715  -344.2683  -258.3992 H6            1 RES     
   12438 H6         413.9441  -342.5153  -258.3348 H6            1 RES     
   12439 H6         415.7751  -343.0722  -259.9010 H6            1 RES     
   12440 H6         414.4189  -342.2494  -260.7260 H6            1 RES     
   12441 H6         413.6253  -344.3775  -261.6990 H6            1 RES     
   12442 H6         415.3389  -344.0339  -262.1020 H6            1 RES     
   12443 H6         414.3396  -345.9784  -259.9143 H6            1 RES     
   12444 H6         416.0712  -345.6647  -260.2922 H6            1 RES     
   12445 H6         415.1633  -347.7814  -261.2661 H6            1 RES     
   12446 H6         413.9387  -346.8432  -262.1953 H6            1 RES     
   12447 H6         415.8395  -345.7124  -263.4690 H6            1 RES     
   12448 H6         417.0168  -346.5987  -262.4333 H6            1 RES     
   12449 H6         416.2050  -348.7769  -263.3453 H6            1 RES     
   12450 H6         416.8528  -347.6682  -264.6066 H6            1 RES     
   12451 H6         413.8568  -348.1575  -264.0418 H6            1 RES     
   12452 H6         414.5383  -347.0069  -265.2640 H6            1 RES     
   12453 H6         414.8192  -348.7817  -265.4215 H6            1 RES     
   12454 H6         409.8881  -344.1112  -258.5458 H6            1 RES     
   12455 H6         408.3785  -343.7170  -259.0984 H6            1 RES     
   12456 H6         409.4148  -342.8543  -256.7823 H6            1 RES     
   12457 H6         410.0821  -341.4990  -257.7434 H6            1 RES     
   12458 H6         407.1030  -342.4403  -257.4449 H6            1 RES     
   12459 H6         407.6222  -341.0455  -258.4161 H6            1 RES     
   12460 H6         408.4416  -339.8070  -256.5310 H6            1 RES     
   12461 H6         406.6839  -340.2128  -256.5653 H6            1 RES     
   12462 H6         406.8985  -341.9545  -254.9447 H6            1 RES     
   12463 H6         408.6607  -341.6033  -254.7218 H6            1 RES     
   12464 H6         408.1453  -339.2420  -254.1257 H6            1 RES     
   12465 H6         406.3906  -339.4853  -254.4232 H6            1 RES     
   12466 H6         406.9533  -339.4323  -252.0335 H6            1 RES     
   12467 H6         408.0029  -340.8888  -252.2102 H6            1 RES     
   12468 H6         405.9529  -342.2122  -252.9230 H6            1 RES     
   12469 H6         405.7063  -341.4233  -251.3278 H6            1 RES     
   12470 H6         404.9588  -340.7056  -252.8019 H6            1 RES     
   12471 C0         406.6286  -344.5283  -274.0139 C0            1 RES     
   12472 C1         406.7182  -343.4460  -272.9156 C1            1 RES     
   12473 C1         406.9396  -342.2072  -273.4270 C1            1 RES     
   12474 S2         407.1338  -341.0248  -272.2579 S2            1 RES     
   12475 C1         406.9687  -342.1519  -270.9957 C1            1 RES     
   12476 C1         406.7675  -343.4369  -271.5116 C1            1 RES     
   12477 C1         407.0526  -342.3079  -274.8305 C1            1 RES     
   12478 C1         406.9686  -343.6163  -275.1936 C1            1 RES     
   12479 C1         407.2149  -343.8056  -276.5482 C1            1 RES     
   12480 C1         407.4501  -342.5753  -277.1848 C1            1 RES     
   12481 S2         407.3737  -341.2756  -276.0946 S2            1 RES     
   12482 H3         406.7164  -344.2976  -270.8722 H3            1 RES     
   12483 H3         407.2284  -344.7702  -277.0412 H3            1 RES     
   12484 N4         407.4034  -341.5304  -280.7843 N4            1 RES     
   12485 C1         407.0011  -341.7359  -279.4959 C1            1 RES     
   12486 C1         407.8424  -342.3868  -278.5770 C1            1 RES     
   12487 C1         409.1043  -342.7940  -279.0136 C1            1 RES     
   12488 N4         410.0330  -343.3800  -278.2151 N4            1 RES     
   12489 S2         411.3122  -343.5679  -279.2447 S2            1 RES     
   12490 N4         410.7621  -342.9457  -280.6760 N4            1 RES     
   12491 C1         409.5060  -342.5514  -280.3511 C1            1 RES     
   12492 C1         408.6279  -341.9261  -281.2324 C1            1 RES     
   12493 H5         406.0158  -341.3988  -279.1855 H5            1 RES     
   12494 C0         405.2528  -345.2248  -274.3051 C0            1 RES     
   12495 C0         403.9512  -344.6632  -274.9923 C0            1 RES     
   12496 C0         402.8917  -345.8134  -274.8628 C0            1 RES     
   12497 C0         401.5259  -345.5737  -275.5180 C0            1 RES     
   12498 C0         400.5482  -346.7492  -275.2830 C0            1 RES     
   12499 C0         400.9746  -348.1085  -275.8800 C0            1 RES     
   12500 C0         401.2793  -348.0867  -277.3882 C0            1 RES     
   12501 C0         400.0952  -347.5884  -278.2356 C0            1 RES     
   12502 C0         400.4204  -347.5145  -279.7344 C0            1 RES     
   12503 C0         400.6498  -348.8947  -280.3731 C0            1 RES     
   12504 C0         400.8608  -348.8175  -281.8935 C0            1 RES     
   12505 C0         402.1447  -348.0863  -282.2872 C0            1 RES     
   12506 C0         403.3749  -343.2809  -274.5425 C0            1 RES     
   12507 C0         402.8316  -343.1178  -273.0896 C0            1 RES     
   12508 C0         403.6221  -342.0104  -272.3860 C0            1 RES     
   12509 C0         403.4959  -341.8924  -270.8698 C0            1 RES     
   12510 C0         402.2513  -341.1904  -270.3466 C0            1 RES     
   12511 C0         402.3519  -341.1404  -268.8076 C0            1 RES     
   12512 C0         401.2686  -340.2958  -268.1329 C0            1 RES     
   12513 C0         401.4253  -338.8035  -268.4329 C0            1 RES     
   12514 H6         404.9093  -345.6044  -273.3768 H6            1 RES     
   12515 H6         405.5187  -346.0975  -274.9434 H6            1 RES     
   12516 H6         404.1944  -344.5277  -276.0698 H6            1 RES     
   12517 H6         402.7064  -346.0215  -273.7863 H6            1 RES     
   12518 H6         403.3313  -346.7304  -275.3106 H6            1 RES     
   12519 H6         401.6521  -345.3804  -276.6027 H6            1 RES     
   12520 H6         401.0518  -344.6832  -275.0582 H6            1 RES     
   12521 H6         399.5614  -346.4665  -275.7045 H6            1 RES     
   12522 H6         400.3956  -346.8865  -274.1895 H6            1 RES     
   12523 H6         400.1595  -348.8409  -275.6862 H6            1 RES     
   12524 H6         401.8760  -348.4839  -275.3501 H6            1 RES     
   12525 H6         402.1635  -347.4410  -277.5738 H6            1 RES     
   12526 H6         401.5479  -349.1218  -277.6852 H6            1 RES     
   12527 H6         399.8413  -346.5549  -277.9233 H6            1 RES     
   12528 H6         399.2040  -348.2326  -278.0700 H6            1 RES     
   12529 H6         399.5537  -347.0381  -280.2424 H6            1 RES     
   12530 H6         401.3069  -346.8604  -279.8719 H6            1 RES     
   12531 H6         401.5237  -349.4040  -279.9163 H6            1 RES     
   12532 H6         399.7460  -349.5153  -280.1882 H6            1 RES     
   12533 H6         399.9875  -348.3215  -282.3707 H6            1 RES     
   12534 H6         400.9254  -349.8552  -282.2863 H6            1 RES     
   12535 H6         402.1196  -347.0247  -281.9685 H6            1 RES     
   12536 H6         403.0255  -348.5871  -281.8321 H6            1 RES     
   12537 H6         402.2555  -348.1073  -283.3916 H6            1 RES     
   12538 H6         402.5371  -343.0278  -275.2270 H6            1 RES     
   12539 H6         404.1251  -342.4973  -274.7824 H6            1 RES     
   12540 H6         401.7577  -342.8250  -273.0999 H6            1 RES     
   12541 H6         402.9232  -344.0758  -272.5386 H6            1 RES     
   12542 H6         403.5005  -341.0249  -272.8829 H6            1 RES     
   12543 H6         404.6389  -342.3131  -272.5192 H6            1 RES     
   12544 H6         403.6044  -342.8841  -270.4239 H6            1 RES     
   12545 H6         404.3643  -341.2835  -270.5298 H6            1 RES     
   12546 H6         402.2471  -340.1663  -270.7764 H6            1 RES     
   12547 H6         401.3257  -341.7207  -270.6552 H6            1 RES     
   12548 H6         402.2839  -342.1841  -268.4249 H6            1 RES     
   12549 H6         403.3400  -340.7324  -268.4949 H6            1 RES     
   12550 H6         401.3752  -340.4255  -267.0334 H6            1 RES     
   12551 H6         400.2604  -340.6513  -268.4327 H6            1 RES     
   12552 H6         401.2915  -338.5894  -269.5116 H6            1 RES     
   12553 H6         400.6624  -338.2301  -267.8682 H6            1 RES     
   12554 H6         402.4330  -338.4534  -268.1155 H6            1 RES     
   12555 C0         407.7613  -345.5705  -273.6581 C0            1 RES     
   12556 C0         407.5245  -347.0715  -273.1713 C0            1 RES     
   12557 C0         408.8355  -347.5098  -272.4354 C0            1 RES     
   12558 C0         408.9457  -349.0129  -272.1090 C0            1 RES     
   12559 C0         410.2379  -349.3945  -271.3655 C0            1 RES     
   12560 C0         411.5512  -349.0889  -272.1075 C0            1 RES     
   12561 C0         411.6515  -349.6732  -273.5264 C0            1 RES     
   12562 C0         411.4800  -351.2018  -273.5726 C0            1 RES     
   12563 C0         411.5777  -351.7693  -274.9980 C0            1 RES     
   12564 C0         412.9837  -351.6209  -275.6065 C0            1 RES     
   12565 C0         413.1180  -352.2975  -276.9796 C0            1 RES     
   12566 C0         412.2544  -351.6465  -278.0601 C0            1 RES     
   12567 C0         406.2364  -347.5949  -272.4072 C0            1 RES     
   12568 C0         405.9017  -347.1479  -270.9559 C0            1 RES     
   12569 C0         404.7224  -346.1600  -270.9042 C0            1 RES     
   12570 C0         404.3538  -345.6105  -269.5360 C0            1 RES     
   12571 C0         403.6598  -346.5636  -268.5732 C0            1 RES     
   12572 C0         403.2377  -345.7347  -267.3428 C0            1 RES     
   12573 C0         402.3846  -346.4964  -266.3268 C0            1 RES     
   12574 C0         401.0022  -346.8494  -266.8777 C0            1 RES     
   12575 H6         408.4728  -345.0766  -272.9561 H6            1 RES     
   12576 H6         408.4073  -345.6754  -274.5591 H6            1 RES     
   12577 H6         407.4701  -347.6502  -274.1222 H6            1 RES     
   12578 H6         408.9302  -346.9347  -271.4891 H6            1 RES     
   12579 H6         409.6954  -347.2411  -273.0859 H6            1 RES     
   12580 H6         408.8545  -349.6000  -273.0468 H6            1 RES     
   12581 H6         408.1320  -349.3183  -271.4229 H6            1 RES     
   12582 H6         410.1929  -350.4828  -271.1467 H6            1 RES     
   12583 H6         410.2637  -348.8708  -270.3846 H6            1 RES     
   12584 H6         412.3895  -349.4812  -271.4911 H6            1 RES     
   12585 H6         411.6848  -347.9883  -272.1779 H6            1 RES     
   12586 H6         410.8867  -349.1995  -274.1782 H6            1 RES     
   12587 H6         412.6506  -349.3912  -273.9166 H6            1 RES     
   12588 H6         410.4693  -351.4612  -273.1939 H6            1 RES     
   12589 H6         412.2330  -351.6939  -272.9198 H6            1 RES     
   12590 H6         411.3356  -352.8531  -274.9457 H6            1 RES     
   12591 H6         410.8149  -351.2727  -275.6345 H6            1 RES     
   12592 H6         413.2621  -350.5518  -275.7099 H6            1 RES     
   12593 H6         413.7103  -352.1069  -274.9193 H6            1 RES     
   12594 H6         412.8608  -353.3758  -276.8950 H6            1 RES     
   12595 H6         414.1797  -352.2193  -277.2985 H6            1 RES     
   12596 H6         411.1751  -351.7396  -277.8245 H6            1 RES     
   12597 H6         412.5179  -350.5727  -278.1669 H6            1 RES     
   12598 H6         412.4373  -352.1544  -279.0304 H6            1 RES     
   12599 H6         406.3721  -348.6905  -272.3506 H6            1 RES     
   12600 H6         405.3286  -347.6059  -273.0393 H6            1 RES     
   12601 H6         405.5361  -348.0411  -270.4030 H6            1 RES     
   12602 H6         406.8091  -346.7825  -270.4340 H6            1 RES     
   12603 H6         403.8240  -346.6074  -271.3869 H6            1 RES     
   12604 H6         404.9776  -345.2570  -271.4475 H6            1 RES     
   12605 H6         405.2438  -345.1391  -269.0654 H6            1 RES     
   12606 H6         403.5982  -344.8338  -269.7394 H6            1 RES     
   12607 H6         402.7680  -346.9773  -269.0898 H6            1 RES     
   12608 H6         404.3315  -347.3966  -268.2786 H6            1 RES     
   12609 H6         404.1607  -345.3741  -266.8375 H6            1 RES     
   12610 H6         402.6571  -344.8385  -267.6614 H6            1 RES     
   12611 H6         402.2335  -345.8251  -265.4530 H6            1 RES     
   12612 H6         402.9171  -347.4068  -265.9872 H6            1 RES     
   12613 H6         401.0735  -347.5525  -267.7312 H6            1 RES     
   12614 H6         400.4022  -347.3323  -266.0794 H6            1 RES     
   12615 H6         400.4724  -345.9287  -267.2072 H6            1 RES     
   12616 C0         409.4392  -342.5085  -286.5785 C0            1 RES     
   12617 C1         409.3279  -341.9861  -285.1292 C1            1 RES     
   12618 C1         410.0007  -340.8203  -284.9466 C1            1 RES     
   12619 S2         409.9773  -340.2742  -283.3643 S2            1 RES     
   12620 C1         409.0850  -341.6238  -282.8417 C1            1 RES     
   12621 C1         408.8231  -342.4817  -283.9155 C1            1 RES     
   12622 C1         410.6301  -340.4634  -286.1588 C1            1 RES     
   12623 C1         410.4077  -341.4373  -287.0823 C1            1 RES     
   12624 C1         411.1171  -341.2227  -288.2578 C1            1 RES     
   12625 C1         411.8494  -340.0260  -288.1821 C1            1 RES     
   12626 S2         411.6414  -339.2522  -286.6850 S2            1 RES     
   12627 H3         408.3360  -343.4277  -283.7734 H3            1 RES     
   12628 H3         411.1088  -341.8905  -289.1109 H3            1 RES     
   12629 N4         413.4516  -337.8617  -290.7897 N4            1 RES     
   12630 C1         412.5413  -338.3373  -289.8901 C1            1 RES     
   12631 C1         412.7876  -339.5255  -289.1806 C1            1 RES     
   12632 C1         413.9953  -340.1886  -289.4059 C1            1 RES     
   12633 N4         414.3812  -341.3111  -288.7467 N4            1 RES     
   12634 S2         415.8855  -341.5861  -289.3737 S2            1 RES     
   12635 N4         416.0939  -340.3522  -290.4566 N4            1 RES     
   12636 C1         414.9325  -339.6638  -290.3308 C1            1 RES     
   12637 C1         414.6329  -338.4972  -291.0294 C1            1 RES     
   12638 H5         411.6148  -337.7924  -289.7315 H5            1 RES     
   12639 C0         408.1709  -342.5055  -287.5028 C0            1 RES     
   12640 C0         407.4030  -341.3058  -288.1759 C0            1 RES     
   12641 C0         406.1515  -341.9561  -288.8639 C0            1 RES     
   12642 C0         405.2424  -341.0221  -289.6722 C0            1 RES     
   12643 C0         404.0170  -341.7606  -290.2602 C0            1 RES     
   12644 C0         404.3307  -342.8846  -291.2722 C0            1 RES     
   12645 C0         405.1994  -342.4560  -292.4679 C0            1 RES     
   12646 C0         404.5852  -341.2987  -293.2754 C0            1 RES     
   12647 C0         405.4800  -340.8358  -294.4341 C0            1 RES     
   12648 C0         405.6296  -341.8913  -295.5427 C0            1 RES     
   12649 C0         406.4316  -341.3762  -296.7484 C0            1 RES     
   12650 C0         407.8943  -341.0788  -296.4163 C0            1 RES     
   12651 C0         407.0182  -340.0562  -287.3184 C0            1 RES     
   12652 C0         405.9993  -340.2185  -286.1487 C0            1 RES     
   12653 C0         406.6743  -339.7948  -284.8407 C0            1 RES     
   12654 C0         405.9928  -340.1709  -283.5280 C0            1 RES     
   12655 C0         404.8320  -339.2894  -283.0910 C0            1 RES     
   12656 C0         404.3290  -339.8152  -281.7302 C0            1 RES     
   12657 C0         403.2844  -338.9219  -281.0572 C0            1 RES     
   12658 C0         403.8726  -337.5866  -280.5967 C0            1 RES     
   12659 H6         407.4160  -343.0285  -286.9734 H6            1 RES     
   12660 H6         408.4653  -343.1360  -288.3719 H6            1 RES     
   12661 H6         408.0730  -340.9053  -288.9693 H6            1 RES     
   12662 H6         405.5176  -342.4401  -288.0890 H6            1 RES     
   12663 H6         406.5165  -342.7544  -289.5451 H6            1 RES     
   12664 H6         405.8235  -340.5263  -290.4762 H6            1 RES     
   12665 H6         404.8361  -340.2381  -289.0018 H6            1 RES     
   12666 H6         403.3641  -341.0092  -290.7505 H6            1 RES     
   12667 H6         403.4212  -342.2014  -289.4304 H6            1 RES     
   12668 H6         403.3648  -343.2857  -291.6522 H6            1 RES     
   12669 H6         404.8444  -343.7224  -290.7539 H6            1 RES     
   12670 H6         406.2046  -342.1579  -292.1020 H6            1 RES     
   12671 H6         405.3264  -343.3458  -293.1189 H6            1 RES     
   12672 H6         404.4649  -340.4209  -292.6083 H6            1 RES     
   12673 H6         403.5819  -341.5859  -293.6595 H6            1 RES     
   12674 H6         405.0111  -339.9311  -294.8790 H6            1 RES     
   12675 H6         406.4703  -340.5479  -294.0228 H6            1 RES     
   12676 H6         406.1176  -342.8093  -295.1546 H6            1 RES     
   12677 H6         404.6127  -342.1602  -295.9030 H6            1 RES     
   12678 H6         405.9491  -340.4628  -297.1598 H6            1 RES     
   12679 H6         406.4135  -342.1604  -297.5357 H6            1 RES     
   12680 H6         407.9820  -340.2628  -295.6710 H6            1 RES     
   12681 H6         408.3911  -341.9915  -296.0240 H6            1 RES     
   12682 H6         408.4219  -340.7557  -297.3381 H6            1 RES     
   12683 H6         406.5950  -339.2939  -288.0071 H6            1 RES     
   12684 H6         407.9557  -339.5711  -286.9715 H6            1 RES     
   12685 H6         405.1095  -339.5686  -286.3069 H6            1 RES     
   12686 H6         405.6527  -341.2702  -286.0884 H6            1 RES     
   12687 H6         406.9791  -338.7271  -284.8502 H6            1 RES     
   12688 H6         407.5672  -340.3827  -284.8244 H6            1 RES     
   12689 H6         405.6951  -341.2215  -283.5681 H6            1 RES     
   12690 H6         406.7696  -340.0806  -282.7349 H6            1 RES     
   12691 H6         405.2238  -338.2546  -282.9951 H6            1 RES     
   12692 H6         404.0093  -339.3017  -283.8368 H6            1 RES     
   12693 H6         403.8870  -340.8241  -281.8940 H6            1 RES     
   12694 H6         405.1789  -339.9329  -281.0199 H6            1 RES     
   12695 H6         402.9193  -339.4532  -280.1508 H6            1 RES     
   12696 H6         402.4232  -338.7560  -281.7381 H6            1 RES     
   12697 H6         404.2237  -336.9796  -281.4544 H6            1 RES     
   12698 H6         403.0970  -337.0070  -280.0561 H6            1 RES     
   12699 H6         404.7252  -337.7630  -279.9034 H6            1 RES     
   12700 C0         410.0799  -343.9468  -286.4496 C0            1 RES     
   12701 C0         409.3449  -345.3249  -286.7759 C0            1 RES     
   12702 C0         410.1294  -346.4383  -286.0031 C0            1 RES     
   12703 C0         409.7666  -347.8900  -286.3759 C0            1 RES     
   12704 C0         410.5440  -348.9501  -285.5759 C0            1 RES     
   12705 C0         412.0753  -348.9107  -285.7255 C0            1 RES     
   12706 C0         412.5921  -348.9616  -287.1729 C0            1 RES     
   12707 C0         412.1184  -350.2032  -287.9489 C0            1 RES     
   12708 C0         412.6393  -350.2365  -289.3949 C0            1 RES     
   12709 C0         414.1661  -350.4130  -289.4775 C0            1 RES     
   12710 C0         414.6747  -350.5720  -290.9188 C0            1 RES     
   12711 C0         414.4720  -349.3196  -291.7718 C0            1 RES     
   12712 C0         407.7792  -345.5694  -286.6994 C0            1 RES     
   12713 C0         407.0100  -345.5624  -285.3480 C0            1 RES     
   12714 C0         406.1558  -344.2948  -285.1663 C0            1 RES     
   12715 C0         405.4116  -344.1582  -283.8483 C0            1 RES     
   12716 C0         404.2031  -345.0602  -283.6408 C0            1 RES     
   12717 C0         403.5272  -344.6150  -282.3279 C0            1 RES     
   12718 C0         402.1982  -345.3116  -282.0303 C0            1 RES     
   12719 C0         401.1021  -344.9196  -283.0223 C0            1 RES     
   12720 H6         410.5490  -344.0235  -285.4412 H6            1 RES     
   12721 H6         410.9868  -343.9625  -287.0956 H6            1 RES     
   12722 H6         409.5412  -345.4762  -287.8625 H6            1 RES     
   12723 H6         409.9700  -346.3034  -284.9114 H6            1 RES     
   12724 H6         411.2119  -346.2964  -286.2104 H6            1 RES     
   12725 H6         409.9232  -348.0395  -287.4648 H6            1 RES     
   12726 H6         408.7034  -348.0930  -286.1428 H6            1 RES     
   12727 H6         410.1769  -349.9494  -285.8935 H6            1 RES     
   12728 H6         410.2982  -348.8464  -284.4961 H6            1 RES     
   12729 H6         412.4948  -349.7699  -285.1577 H6            1 RES     
   12730 H6         412.4660  -347.9846  -285.2525 H6            1 RES     
   12731 H6         412.2700  -348.0468  -287.7148 H6            1 RES     
   12732 H6         413.6996  -348.9491  -287.1158 H6            1 RES     
   12733 H6         411.0101  -350.1881  -288.0086 H6            1 RES     
   12734 H6         412.4254  -351.1300  -287.4175 H6            1 RES     
   12735 H6         412.1624  -351.1021  -289.9042 H6            1 RES     
   12736 H6         412.3180  -349.3080  -289.9129 H6            1 RES     
   12737 H6         414.6920  -349.5557  -289.0090 H6            1 RES     
   12738 H6         414.4373  -351.3366  -288.9210 H6            1 RES     
   12739 H6         414.1731  -351.4384  -291.4019 H6            1 RES     
   12740 H6         415.7651  -350.7830  -290.8767 H6            1 RES     
   12741 H6         413.3954  -349.0860  -291.8962 H6            1 RES     
   12742 H6         414.9871  -348.4516  -291.3079 H6            1 RES     
   12743 H6         414.9034  -349.4898  -292.7806 H6            1 RES     
   12744 H6         407.6354  -346.5851  -287.1112 H6            1 RES     
   12745 H6         407.2143  -345.0278  -287.4813 H6            1 RES     
   12746 H6         406.2687  -346.3913  -285.3767 H6            1 RES     
   12747 H6         407.6963  -345.7597  -284.4997 H6            1 RES     
   12748 H6         405.4440  -344.1853  -286.0159 H6            1 RES     
   12749 H6         406.7968  -343.4204  -285.1539 H6            1 RES     
   12750 H6         406.1260  -344.2397  -283.0004 H6            1 RES     
   12751 H6         404.9890  -343.1401  -283.8684 H6            1 RES     
   12752 H6         403.5181  -344.9122  -284.5023 H6            1 RES     
   12753 H6         404.5026  -346.1277  -283.5904 H6            1 RES     
   12754 H6         404.2328  -344.8162  -281.4919 H6            1 RES     
   12755 H6         403.3324  -343.5178  -282.3463 H6            1 RES     
   12756 H6         401.8691  -344.9786  -281.0215 H6            1 RES     
   12757 H6         402.3386  -346.4106  -282.0130 H6            1 RES     
   12758 H6         401.3448  -345.2580  -284.0491 H6            1 RES     
   12759 H6         400.1462  -345.3930  -282.7176 H6            1 RES     
   12760 H6         400.9623  -343.8163  -283.0256 H6            1 RES     
   12761 C0         417.3258  -337.4491  -295.6368 C0            1 RES     
   12762 C1         416.7736  -337.4581  -294.1944 C1            1 RES     
   12763 C1         417.5609  -336.7606  -293.3348 C1            1 RES     
   12764 S2         417.0401  -336.8275  -291.7452 S2            1 RES     
   12765 C1         415.7394  -337.8471  -292.1444 C1            1 RES     
   12766 C1         415.7369  -338.1210  -293.5165 C1            1 RES     
   12767 C1         418.6773  -336.2638  -294.0414 C1            1 RES     
   12768 C1         418.6254  -336.7044  -295.3275 C1            1 RES     
   12769 C1         419.7675  -336.3724  -296.0463 C1            1 RES     
   12770 C1         420.6567  -335.6330  -295.2482 C1            1 RES     
   12771 S2         420.0550  -335.4061  -293.6766 S2            1 RES     
   12772 H3         415.0366  -338.8088  -293.9511 H3            1 RES     
   12773 H3         419.9469  -336.6513  -297.0777 H3            1 RES     
   12774 N4         423.5897  -333.4489  -296.0713 N4            1 RES     
   12775 C1         422.3187  -333.8373  -295.7584 C1            1 RES     
   12776 C1         421.9969  -335.1992  -295.6266 C1            1 RES     
   12777 C1         423.0165  -336.1366  -295.8019 C1            1 RES     
   12778 N4         422.8537  -337.4756  -295.6466 N4            1 RES     
   12779 S2         424.3818  -338.0475  -295.9108 S2            1 RES     
   12780 N4         425.2660  -336.6835  -296.2209 N4            1 RES     
   12781 C1         424.3324  -335.7068  -296.1069 C1            1 RES     
   12782 C1         424.5976  -334.3477  -296.2531 C1            1 RES     
   12783 H5         421.5500  -333.0819  -295.6198 H5            1 RES     
   12784 C0         416.5569  -336.6622  -296.7559 C0            1 RES     
   12785 C0         416.4013  -335.1118  -296.9884 C0            1 RES     
   12786 C0         415.4100  -334.9772  -298.1973 C0            1 RES     
   12787 C0         415.1225  -333.5578  -298.7023 C0            1 RES     
   12788 C0         414.0956  -333.5435  -299.8590 C0            1 RES     
   12789 C0         414.5237  -334.2796  -301.1478 C0            1 RES     
   12790 C0         415.8634  -333.8141  -301.7451 C0            1 RES     
   12791 C0         415.8883  -332.3101  -302.0709 C0            1 RES     
   12792 C0         417.2443  -331.8375  -302.6144 C0            1 RES     
   12793 C0         417.5790  -332.4208  -303.9976 C0            1 RES     
   12794 C0         418.8822  -331.8527  -304.5818 C0            1 RES     
   12795 C0         420.1235  -332.2465  -303.7805 C0            1 RES     
   12796 C0         415.9982  -334.1879  -295.7931 C0            1 RES     
   12797 C0         414.5937  -334.3593  -295.1369 C0            1 RES     
   12798 C0         414.7768  -334.6928  -293.6532 C0            1 RES     
   12799 C0         413.5701  -335.2218  -292.8833 C0            1 RES     
   12800 C0         412.5577  -334.1862  -292.4165 C0            1 RES     
   12801 C0         411.4582  -334.9266  -291.6265 C0            1 RES     
   12802 C0         410.4594  -334.0050  -290.9229 C0            1 RES     
   12803 C0         411.0997  -333.2261  -289.7719 C0            1 RES     
   12804 H6         415.5594  -337.0205  -296.7394 H6            1 RES     
   12805 H6         417.0211  -337.0143  -297.7048 H6            1 RES     
   12806 H6         417.3994  -334.7370  -297.3077 H6            1 RES     
   12807 H6         414.4328  -335.4310  -297.9222 H6            1 RES     
   12808 H6         415.8262  -335.5650  -299.0433 H6            1 RES     
   12809 H6         416.0665  -333.0645  -299.0108 H6            1 RES     
   12810 H6         414.6704  -332.9635  -297.8827 H6            1 RES     
   12811 H6         413.8716  -332.4857  -300.1083 H6            1 RES     
   12812 H6         413.1405  -333.9930  -299.5075 H6            1 RES     
   12813 H6         413.7216  -334.1407  -301.9066 H6            1 RES     
   12814 H6         414.5933  -335.3706  -300.9503 H6            1 RES     
   12815 H6         416.6832  -334.0514  -301.0347 H6            1 RES     
   12816 H6         416.0350  -334.4042  -302.6692 H6            1 RES     
   12817 H6         415.7136  -331.7385  -301.1368 H6            1 RES     
   12818 H6         415.0797  -332.0579  -302.7915 H6            1 RES     
   12819 H6         417.2007  -330.7304  -302.7073 H6            1 RES     
   12820 H6         418.0307  -332.0938  -301.8738 H6            1 RES     
   12821 H6         417.6590  -333.5268  -303.9540 H6            1 RES     
   12822 H6         416.7529  -332.1559  -304.6931 H6            1 RES     
   12823 H6         418.8152  -330.7447  -304.6458 H6            1 RES     
   12824 H6         419.0012  -332.2513  -305.6124 H6            1 RES     
   12825 H6         420.0902  -331.8314  -302.7530 H6            1 RES     
   12826 H6         420.2109  -333.3526  -303.7286 H6            1 RES     
   12827 H6         421.0278  -331.8420  -304.2815 H6            1 RES     
   12828 H6         416.0595  -333.1362  -296.1463 H6            1 RES     
   12829 H6         416.8065  -334.2322  -295.0320 H6            1 RES     
   12830 H6         414.0054  -333.4172  -295.2111 H6            1 RES     
   12831 H6         414.0276  -335.1616  -295.6522 H6            1 RES     
   12832 H6         415.2892  -333.8788  -293.0983 H6            1 RES     
   12833 H6         415.4374  -335.5334  -293.6710 H6            1 RES     
   12834 H6         413.0873  -336.0065  -293.4709 H6            1 RES     
   12835 H6         413.9724  -335.7027  -291.9627 H6            1 RES     
   12836 H6         413.0991  -333.4689  -291.7639 H6            1 RES     
   12837 H6         412.1132  -333.6375  -293.2736 H6            1 RES     
   12838 H6         410.9043  -335.5796  -292.3386 H6            1 RES     
   12839 H6         411.9121  -335.5852  -290.8514 H6            1 RES     
   12840 H6         409.6602  -334.6436  -290.4864 H6            1 RES     
   12841 H6         409.9945  -333.3107  -291.6541 H6            1 RES     
   12842 H6         411.8842  -332.5339  -290.1362 H6            1 RES     
   12843 H6         410.3237  -332.6282  -289.2524 H6            1 RES     
   12844 H6         411.5497  -333.9306  -289.0371 H6            1 RES     
   12845 C0         417.5286  -338.9708  -296.0095 C0            1 RES     
   12846 C0         416.6951  -339.7792  -297.1040 C0            1 RES     
   12847 C0         416.8455  -341.2957  -296.7432 C0            1 RES     
   12848 C0         416.3463  -342.2879  -297.8129 C0            1 RES     
   12849 C0         416.4915  -343.7651  -297.4066 C0            1 RES     
   12850 C0         417.9260  -344.2403  -297.1146 C0            1 RES     
   12851 C0         418.9440  -343.9732  -298.2357 C0            1 RES     
   12852 C0         418.5505  -344.6039  -299.5831 C0            1 RES     
   12853 C0         419.5755  -344.3235  -300.6940 C0            1 RES     
   12854 C0         420.9318  -345.0067  -300.4438 C0            1 RES     
   12855 C0         421.9162  -344.8321  -301.6107 C0            1 RES     
   12856 C0         422.3474  -343.3810  -301.8244 C0            1 RES     
   12857 C0         415.2132  -339.4432  -297.5601 C0            1 RES     
   12858 C0         413.9977  -339.6227  -296.6069 C0            1 RES     
   12859 C0         413.4448  -338.2776  -296.1027 C0            1 RES     
   12860 C0         412.2935  -338.3426  -295.1127 C0            1 RES     
   12861 C0         410.9334  -338.7508  -295.6610 C0            1 RES     
   12862 C0         409.9135  -338.5725  -294.5178 C0            1 RES     
   12863 C0         408.4559  -338.7903  -294.9280 C0            1 RES     
   12864 C0         407.9535  -337.7072  -295.8837 C0            1 RES     
   12865 H6         417.5347  -339.5576  -295.0616 H6            1 RES     
   12866 H6         418.5881  -339.0933  -296.3294 H6            1 RES     
   12867 H6         417.2632  -339.6061  -298.0470 H6            1 RES     
   12868 H6         416.3048  -341.4982  -295.7935 H6            1 RES     
   12869 H6         417.9246  -341.4979  -296.5716 H6            1 RES     
   12870 H6         416.8802  -342.0979  -298.7676 H6            1 RES     
   12871 H6         415.2607  -342.1543  -297.9850 H6            1 RES     
   12872 H6         416.0670  -344.3840  -298.2258 H6            1 RES     
   12873 H6         415.8714  -343.9587  -296.5038 H6            1 RES     
   12874 H6         417.8874  -345.3325  -296.9093 H6            1 RES     
   12875 H6         418.2944  -343.7469  -296.1899 H6            1 RES     
   12876 H6         419.0718  -342.8775  -298.3683 H6            1 RES     
   12877 H6         419.9131  -344.3878  -297.8909 H6            1 RES     
   12878 H6         417.5879  -344.1641  -299.9179 H6            1 RES     
   12879 H6         418.4108  -345.7007  -299.4690 H6            1 RES     
   12880 H6         419.1579  -344.7204  -301.6449 H6            1 RES     
   12881 H6         419.6977  -343.2246  -300.7998 H6            1 RES     
   12882 H6         421.4074  -344.6208  -299.5186 H6            1 RES     
   12883 H6         420.7510  -346.0964  -300.3162 H6            1 RES     
   12884 H6         421.4660  -345.2297  -302.5461 H6            1 RES     
   12885 H6         422.8263  -345.4284  -301.3843 H6            1 RES     
   12886 H6         421.4869  -342.7418  -302.1072 H6            1 RES     
   12887 H6         422.8175  -342.9803  -300.9011 H6            1 RES     
   12888 H6         423.0907  -343.3373  -302.6480 H6            1 RES     
   12889 H6         415.0213  -340.1256  -298.4084 H6            1 RES     
   12890 H6         415.1357  -338.4981  -298.1297 H6            1 RES     
   12891 H6         413.1636  -340.0572  -297.2008 H6            1 RES     
   12892 H6         414.2339  -340.3378  -295.7931 H6            1 RES     
   12893 H6         413.1670  -337.6285  -296.9640 H6            1 RES     
   12894 H6         414.2059  -337.7613  -295.5283 H6            1 RES     
   12895 H6         412.5805  -338.9679  -294.2395 H6            1 RES     
   12896 H6         412.1497  -337.3013  -294.7801 H6            1 RES     
   12897 H6         410.6927  -338.0741  -296.5080 H6            1 RES     
   12898 H6         410.9445  -339.8002  -296.0224 H6            1 RES     
   12899 H6         410.1708  -339.2939  -293.7112 H6            1 RES     
   12900 H6         409.9899  -337.5470  -294.0883 H6            1 RES     
   12901 H6         407.8401  -338.7308  -294.0038 H6            1 RES     
   12902 H6         408.3310  -339.7971  -295.3736 H6            1 RES     
   12903 H6         408.4981  -337.7333  -296.8484 H6            1 RES     
   12904 H6         406.8758  -337.8712  -296.0890 H6            1 RES     
   12905 H6         408.0745  -336.7017  -295.4241 H6            1 RES     
   12906 C0         429.0416  -332.8358  -298.9996 C0            1 RES     
   12907 C1         427.9806  -333.1401  -297.9191 C1            1 RES     
   12908 C1         428.5007  -333.1232  -296.6643 C1            1 RES     
   12909 S2         427.3972  -333.5397  -295.4763 S2            1 RES     
   12910 C1         426.1668  -333.8060  -296.6191 C1            1 RES     
   12911 C1         426.6423  -333.5672  -297.9132 C1            1 RES     
   12912 C1         429.8847  -332.8587  -296.7489 C1            1 RES     
   12913 C1         430.2454  -332.7756  -298.0581 C1            1 RES     
   12914 C1         431.6205  -332.6587  -298.2209 C1            1 RES     
   12915 C1         432.2650  -332.6217  -296.9729 C1            1 RES     
   12916 S2         431.1615  -332.7487  -295.6885 S2            1 RES     
   12917 H3         426.0353  -333.7546  -298.7785 H3            1 RES     
   12918 H3         432.1236  -332.6088  -299.1791 H3            1 RES     
   12919 N4         435.6902  -331.5249  -295.9168 N4            1 RES     
   12920 C1         434.3468  -331.5029  -296.1593 C1            1 RES     
   12921 C1         433.7061  -332.6071  -296.7476 C1            1 RES     
   12922 C1         434.4773  -333.7298  -297.0535 C1            1 RES     
   12923 N4         433.9744  -334.8805  -297.5697 N4            1 RES     
   12924 S2         435.3155  -335.8430  -297.6527 S2            1 RES     
   12925 N4         436.5288  -334.8815  -297.0679 N4            1 RES     
   12926 C1         435.8670  -333.7351  -296.7738 C1            1 RES     
   12927 C1         436.4622  -332.6077  -296.2141 C1            1 RES     
   12928 H5         433.7735  -330.6168  -295.9011 H5            1 RES     
   12929 C0         428.9686  -331.4875  -299.7992 C0            1 RES     
   12930 C0         429.2645  -330.0108  -299.3367 C0            1 RES     
   12931 C0         428.8836  -329.1133  -300.5663 C0            1 RES     
   12932 C0         429.1396  -327.6073  -300.4300 C0            1 RES     
   12933 C0         428.6799  -326.8188  -301.6789 C0            1 RES     
   12934 C0         429.4047  -327.1658  -302.9980 C0            1 RES     
   12935 C0         430.9381  -327.0480  -302.9451 C0            1 RES     
   12936 C0         431.4214  -325.6453  -302.5359 C0            1 RES     
   12937 C0         432.9499  -325.5458  -302.4295 C0            1 RES     
   12938 C0         433.6622  -325.6941  -303.7846 C0            1 RES     
   12939 C0         435.1807  -325.4788  -303.6836 C0            1 RES     
   12940 C0         435.8872  -326.5509  -302.8531 C0            1 RES     
   12941 C0         428.6403  -329.4782  -298.0056 C0            1 RES     
   12942 C0         427.0909  -329.3386  -297.8924 C0            1 RES     
   12943 C0         426.5984  -330.2068  -296.7306 C0            1 RES     
   12944 C0         425.1018  -330.4880  -296.6303 C0            1 RES     
   12945 C0         424.2443  -329.3838  -296.0295 C0            1 RES     
   12946 C0         422.7888  -329.8938  -295.9796 C0            1 RES     
   12947 C0         421.8252  -328.9750  -295.2249 C0            1 RES     
   12948 C0         422.1178  -328.9347  -293.7235 C0            1 RES     
   12949 H6         427.9922  -331.4372  -300.2089 H6            1 RES     
   12950 H6         429.6773  -331.6336  -300.6455 H6            1 RES     
   12951 H6         430.3638  -329.9423  -299.1774 H6            1 RES     
   12952 H6         427.8028  -329.2425  -300.7935 H6            1 RES     
   12953 H6         429.4569  -329.4811  -301.4441 H6            1 RES     
   12954 H6         430.2127  -327.4203  -300.2221 H6            1 RES     
   12955 H6         428.5461  -327.2116  -299.5812 H6            1 RES     
   12956 H6         428.8121  -325.7367  -301.4715 H6            1 RES     
   12957 H6         427.5898  -326.9787  -301.8331 H6            1 RES     
   12958 H6         429.0172  -326.4897  -303.7924 H6            1 RES     
   12959 H6         429.1476  -328.2021  -303.3050 H6            1 RES     
   12960 H6         431.3386  -327.7990  -302.2319 H6            1 RES     
   12961 H6         431.3232  -327.3011  -303.9547 H6            1 RES     
   12962 H6         431.0256  -325.4104  -301.5268 H6            1 RES     
   12963 H6         431.0382  -324.8820  -303.2481 H6            1 RES     
   12964 H6         433.1927  -324.5414  -302.0192 H6            1 RES     
   12965 H6         433.3046  -326.3115  -301.7079 H6            1 RES     
   12966 H6         433.4715  -326.6939  -304.2268 H6            1 RES     
   12967 H6         433.2564  -324.9222  -304.4742 H6            1 RES     
   12968 H6         435.3916  -324.4750  -303.2544 H6            1 RES     
   12969 H6         435.6030  -325.5104  -304.7112 H6            1 RES     
   12970 H6         435.5463  -326.5353  -301.7983 H6            1 RES     
   12971 H6         435.6998  -327.5563  -303.2864 H6            1 RES     
   12972 H6         436.9807  -326.3594  -302.8599 H6            1 RES     
   12973 H6         429.0666  -328.4701  -297.8148 H6            1 RES     
   12974 H6         429.0534  -330.0758  -297.1650 H6            1 RES     
   12975 H6         426.8036  -328.2836  -297.6837 H6            1 RES     
   12976 H6         426.6101  -329.6461  -298.8431 H6            1 RES     
   12977 H6         427.0184  -329.8833  -295.7550 H6            1 RES     
   12978 H6         427.0088  -331.1688  -296.9528 H6            1 RES     
   12979 H6         424.7275  -330.7857  -297.6128 H6            1 RES     
   12980 H6         424.9932  -331.3690  -295.9576 H6            1 RES     
   12981 H6         424.6305  -329.1882  -295.0067 H6            1 RES     
   12982 H6         424.3053  -328.4506  -296.6285 H6            1 RES     
   12983 H6         422.4290  -330.0087  -297.0273 H6            1 RES     
   12984 H6         422.7439  -330.8970  -295.4978 H6            1 RES     
   12985 H6         420.7990  -329.3848  -295.3515 H6            1 RES     
   12986 H6         421.8509  -327.9521  -295.6560 H6            1 RES     
   12987 H6         423.1144  -328.4982  -293.5151 H6            1 RES     
   12988 H6         421.3536  -328.3135  -293.2138 H6            1 RES     
   12989 H6         422.0751  -329.9622  -293.2979 H6            1 RES     
   12990 C0         429.0317  -334.0958  -299.9525 C0            1 RES     
   12991 C0         428.5379  -334.1104  -301.4698 C0            1 RES     
   12992 C0         428.1947  -335.6002  -301.8088 C0            1 RES     
   12993 C0         427.9490  -335.9046  -303.3005 C0            1 RES     
   12994 C0         427.5919  -337.3743  -303.5844 C0            1 RES     
   12995 C0         428.6526  -338.4113  -303.1742 C0            1 RES     
   12996 C0         430.0605  -338.1659  -303.7418 C0            1 RES     
   12997 C0         430.0982  -338.1007  -305.2789 C0            1 RES     
   12998 C0         431.5112  -337.8499  -305.8299 C0            1 RES     
   12999 C0         432.4725  -339.0235  -305.5699 C0            1 RES     
   13000 C0         433.8478  -338.8299  -306.2273 C0            1 RES     
   13001 C0         434.6381  -337.6605  -305.6398 C0            1 RES     
   13002 C0         427.4684  -333.1195  -302.0953 C0            1 RES     
   13003 C0         425.9696  -333.1588  -301.6829 C0            1 RES     
   13004 C0         425.5762  -331.9686  -300.7897 C0            1 RES     
   13005 C0         424.1455  -331.9453  -300.2773 C0            1 RES     
   13006 C0         423.0561  -331.6100  -301.2861 C0            1 RES     
   13007 C0         421.7365  -331.4777  -300.4987 C0            1 RES     
   13008 C0         420.5480  -330.9900  -301.3292 C0            1 RES     
   13009 C0         420.7144  -329.5398  -301.7856 C0            1 RES     
   13010 H6         428.5352  -334.9327  -299.4085 H6            1 RES     
   13011 H6         430.0760  -334.4792  -300.0026 H6            1 RES     
   13012 H6         429.4535  -333.8429  -302.0462 H6            1 RES     
   13013 H6         427.2944  -335.9054  -301.2329 H6            1 RES     
   13014 H6         429.0459  -336.2296  -301.4710 H6            1 RES     
   13015 H6         428.8423  -335.6060  -303.8882 H6            1 RES     
   13016 H6         427.0770  -335.3320  -303.6715 H6            1 RES     
   13017 H6         427.3973  -337.4702  -304.6740 H6            1 RES     
   13018 H6         426.6411  -337.6265  -303.0652 H6            1 RES     
   13019 H6         428.2956  -339.4117  -303.5034 H6            1 RES     
   13020 H6         428.7280  -338.4398  -302.0662 H6            1 RES     
   13021 H6         430.4693  -337.2204  -303.3256 H6            1 RES     
   13022 H6         430.6984  -338.9984  -303.3812 H6            1 RES     
   13023 H6         429.4676  -337.2524  -305.6178 H6            1 RES     
   13024 H6         429.6856  -339.0364  -305.7144 H6            1 RES     
   13025 H6         431.4235  -337.7111  -306.9295 H6            1 RES     
   13026 H6         431.9053  -336.9088  -305.3908 H6            1 RES     
   13027 H6         432.6195  -339.1843  -304.4820 H6            1 RES     
   13028 H6         432.0196  -339.9427  -306.0016 H6            1 RES     
   13029 H6         433.7249  -338.6850  -307.3226 H6            1 RES     
   13030 H6         434.4393  -339.7567  -306.0653 H6            1 RES     
   13031 H6         434.1225  -336.6952  -305.8174 H6            1 RES     
   13032 H6         434.7843  -337.8058  -304.5482 H6            1 RES     
   13033 H6         435.6345  -337.6102  -306.1271 H6            1 RES     
   13034 H6         427.4788  -333.3454  -303.1774 H6            1 RES     
   13035 H6         427.8321  -332.0777  -302.1736 H6            1 RES     
   13036 H6         425.3618  -333.0232  -302.6045 H6            1 RES     
   13037 H6         425.7027  -334.1445  -301.2509 H6            1 RES     
   13038 H6         425.8099  -331.0083  -301.3030 H6            1 RES     
   13039 H6         426.1446  -332.0001  -299.8669 H6            1 RES     
   13040 H6         423.9205  -332.8925  -299.7406 H6            1 RES     
   13041 H6         424.1174  -331.1081  -299.5605 H6            1 RES     
   13042 H6         423.3234  -330.6445  -301.7651 H6            1 RES     
   13043 H6         422.9752  -332.3957  -302.0660 H6            1 RES     
   13044 H6         421.4898  -332.4740  -300.0701 H6            1 RES     
   13045 H6         421.8634  -330.7683  -299.6486 H6            1 RES     
   13046 H6         419.6487  -331.0325  -300.6761 H6            1 RES     
   13047 H6         420.3883  -331.6599  -302.1973 H6            1 RES     
   13048 H6         421.5733  -329.4284  -302.4768 H6            1 RES     
   13049 H6         419.7965  -329.2157  -302.3176 H6            1 RES     
   13050 H6         420.8648  -328.8745  -300.9072 H6            1 RES     
   13051 C0         441.8421  -331.9802  -296.7051 C0            1 RES     
   13052 C1         440.4035  -332.2279  -296.2001 C1            1 RES     
   13053 C1         440.3792  -332.8377  -294.9865 C1            1 RES     
   13054 S2         438.8357  -333.2040  -294.4519 S2            1 RES     
   13055 C1         438.1267  -332.5881  -295.8692 C1            1 RES     
   13056 C1         439.1118  -332.1086  -296.7395 C1            1 RES     
   13057 C1         441.7066  -333.0870  -294.5759 C1            1 RES     
   13058 C1         442.5606  -332.6947  -295.5595 C1            1 RES     
   13059 C1         443.8781  -333.0412  -295.2846 C1            1 RES     
   13060 C1         443.9719  -333.6769  -294.0351 C1            1 RES     
   13061 S2         442.4547  -333.8263  -293.2873 S2            1 RES     
   13062 H3         438.8680  -331.7489  -297.7210 H3            1 RES     
   13063 H3         444.7142  -332.8511  -295.9468 H3            1 RES     
   13064 N4         446.8583  -334.3494  -291.7401 N4            1 RES     
   13065 C1         445.7590  -333.7544  -292.2893 C1            1 RES     
   13066 C1         445.1732  -334.2701  -293.4584 C1            1 RES     
   13067 C1         445.7330  -335.4167  -294.0247 C1            1 RES     
   13068 N4         445.2317  -336.0481  -295.1172 N4            1 RES     
   13069 S2         446.2482  -337.3421  -295.2716 S2            1 RES     
   13070 N4         447.3149  -337.1582  -294.0199 N4            1 RES     
   13071 C1         446.8627  -336.0272  -293.4242 C1            1 RES     
   13072 C1         447.4242  -335.4648  -292.2808 C1            1 RES     
   13073 H5         445.3423  -332.8681  -291.8187 H5            1 RES     
   13074 C0         442.3894  -330.5122  -296.7957 C0            1 RES     
   13075 C0         442.7992  -329.5049  -295.6559 C0            1 RES     
   13076 C0         443.1405  -328.1649  -296.3978 C0            1 RES     
   13077 C0         443.6492  -327.0048  -295.5331 C0            1 RES     
   13078 C0         443.9036  -325.7235  -296.3614 C0            1 RES     
   13079 C0         444.9914  -325.8327  -297.4526 C0            1 RES     
   13080 C0         446.3656  -326.3110  -296.9520 C0            1 RES     
   13081 C0         446.9473  -325.4178  -295.8417 C0            1 RES     
   13082 C0         448.2921  -325.9287  -295.3051 C0            1 RES     
   13083 C0         449.4268  -325.8492  -296.3403 C0            1 RES     
   13084 C0         450.7905  -326.2544  -295.7585 C0            1 RES     
   13085 C0         450.8578  -327.7265  -295.3502 C0            1 RES     
   13086 C0         441.8377  -329.2764  -294.4441 C0            1 RES     
   13087 C0         440.4411  -328.6273  -294.6909 C0            1 RES     
   13088 C0         439.3532  -329.5985  -294.2227 C0            1 RES     
   13089 C0         437.9155  -329.3278  -294.6570 C0            1 RES     
   13090 C0         437.1589  -328.2675  -293.8703 C0            1 RES     
   13091 C0         435.7269  -328.1921  -294.4404 C0            1 RES     
   13092 C0         434.7742  -327.3063  -293.6342 C0            1 RES     
   13093 C0         434.4551  -327.8979  -292.2596 C0            1 RES     
   13094 H6         441.6897  -329.9694  -297.3784 H6            1 RES     
   13095 H6         443.3218  -330.6055  -297.3972 H6            1 RES     
   13096 H6         443.7333  -329.9035  -295.2007 H6            1 RES     
   13097 H6         442.2362  -327.8020  -296.9334 H6            1 RES     
   13098 H6         443.9153  -328.3891  -297.1620 H6            1 RES     
   13099 H6         444.5671  -327.3084  -294.9897 H6            1 RES     
   13100 H6         442.8740  -326.7391  -294.7863 H6            1 RES     
   13101 H6         444.1800  -324.9089  -295.6605 H6            1 RES     
   13102 H6         442.9555  -325.4089  -296.8512 H6            1 RES     
   13103 H6         445.1069  -324.8320  -297.9255 H6            1 RES     
   13104 H6         444.6527  -326.5276  -298.2506 H6            1 RES     
   13105 H6         446.2769  -327.3530  -296.5787 H6            1 RES     
   13106 H6         447.0495  -326.3216  -297.8260 H6            1 RES     
   13107 H6         446.2500  -325.4188  -294.9793 H6            1 RES     
   13108 H6         447.0537  -324.3718  -296.2040 H6            1 RES     
   13109 H6         448.5704  -325.2918  -294.4373 H6            1 RES     
   13110 H6         448.1560  -326.9695  -294.9434 H6            1 RES     
   13111 H6         449.2086  -326.4901  -297.2195 H6            1 RES     
   13112 H6         449.5062  -324.7952  -296.6854 H6            1 RES     
   13113 H6         451.0327  -325.6129  -294.8832 H6            1 RES     
   13114 H6         451.5637  -326.0812  -296.5378 H6            1 RES     
   13115 H6         450.1430  -327.9529  -294.5336 H6            1 RES     
   13116 H6         450.6378  -328.3765  -296.2236 H6            1 RES     
   13117 H6         451.8791  -327.9594  -294.9825 H6            1 RES     
   13118 H6         442.3667  -328.6277  -293.7136 H6            1 RES     
   13119 H6         441.7442  -330.2346  -293.8896 H6            1 RES     
   13120 H6         440.3364  -327.6828  -294.1112 H6            1 RES     
   13121 H6         440.3167  -328.3880  -295.7665 H6            1 RES     
   13122 H6         439.4170  -329.8103  -293.1345 H6            1 RES     
   13123 H6         439.5936  -330.5031  -294.7396 H6            1 RES     
   13124 H6         437.9009  -329.1082  -295.7274 H6            1 RES     
   13125 H6         437.3594  -330.2817  -294.5107 H6            1 RES     
   13126 H6         437.1456  -328.5937  -292.8088 H6            1 RES     
   13127 H6         437.6551  -327.2767  -293.9427 H6            1 RES     
   13128 H6         435.7914  -327.7973  -295.4798 H6            1 RES     
   13129 H6         435.2755  -329.2089  -294.4954 H6            1 RES     
   13130 H6         433.8169  -327.2406  -294.1968 H6            1 RES     
   13131 H6         435.1929  -326.2831  -293.5322 H6            1 RES     
   13132 H6         435.3598  -327.9580  -291.6230 H6            1 RES     
   13133 H6         433.7106  -327.2575  -291.7446 H6            1 RES     
   13134 H6         434.0224  -328.9170  -292.3728 H6            1 RES     
   13135 C0         441.9280  -332.7355  -298.0899 C0            1 RES     
   13136 C0         442.0793  -332.0426  -299.5193 C0            1 RES     
   13137 C0         441.5759  -333.0866  -300.5724 C0            1 RES     
   13138 C0         441.8744  -332.7438  -302.0459 C0            1 RES     
   13139 C0         441.3413  -333.7844  -303.0466 C0            1 RES     
   13140 C0         441.8976  -335.2107  -302.8878 C0            1 RES     
   13141 C0         443.4315  -335.3181  -302.8912 C0            1 RES     
   13142 C0         444.0827  -334.7442  -304.1619 C0            1 RES     
   13143 C0         445.6159  -334.8547  -304.1474 C0            1 RES     
   13144 C0         446.1120  -336.3106  -304.2046 C0            1 RES     
   13145 C0         447.6407  -336.4199  -304.3164 C0            1 RES     
   13146 C0         448.3748  -335.9024  -303.0793 C0            1 RES     
   13147 C0         441.5895  -330.5785  -299.8848 C0            1 RES     
   13148 C0         440.0810  -330.2059  -299.9443 C0            1 RES     
   13149 C0         439.6429  -329.3425  -298.7476 C0            1 RES     
   13150 C0         438.1699  -328.9754  -298.6757 C0            1 RES     
   13151 C0         437.6674  -327.9378  -299.6697 C0            1 RES     
   13152 C0         436.2097  -327.6123  -299.2848 C0            1 RES     
   13153 C0         435.5827  -326.4684  -300.0839 C0            1 RES     
   13154 C0         436.2316  -325.1189  -299.7732 C0            1 RES     
   13155 H6         441.0859  -333.4647  -298.1351 H6            1 RES     
   13156 H6         442.7949  -333.4320  -298.0321 H6            1 RES     
   13157 H6         443.1821  -331.9476  -299.6494 H6            1 RES     
   13158 H6         440.4786  -333.2196  -300.4557 H6            1 RES     
   13159 H6         442.0638  -334.0589  -300.3458 H6            1 RES     
   13160 H6         442.9686  -332.6099  -302.1774 H6            1 RES     
   13161 H6         441.3683  -331.8014  -302.3319 H6            1 RES     
   13162 H6         441.5739  -333.4192  -304.0697 H6            1 RES     
   13163 H6         440.2330  -333.8335  -302.9676 H6            1 RES     
   13164 H6         441.4864  -335.8302  -303.7146 H6            1 RES     
   13165 H6         441.5238  -335.6460  -301.9365 H6            1 RES     
   13166 H6         443.8427  -334.7951  -302.0014 H6            1 RES     
   13167 H6         443.6751  -336.3957  -302.7931 H6            1 RES     
   13168 H6         443.8407  -333.6632  -304.2324 H6            1 RES     
   13169 H6         443.6780  -335.2508  -305.0647 H6            1 RES     
   13170 H6         445.9999  -334.3224  -305.0449 H6            1 RES     
   13171 H6         446.0039  -334.3379  -303.2440 H6            1 RES     
   13172 H6         445.7808  -336.8795  -303.3115 H6            1 RES     
   13173 H6         445.6735  -336.7895  -305.1072 H6            1 RES     
   13174 H6         447.9928  -335.8710  -305.2167 H6            1 RES     
   13175 H6         447.8998  -337.4932  -304.4425 H6            1 RES     
   13176 H6         448.1980  -334.8182  -302.9293 H6            1 RES     
   13177 H6         448.0448  -336.4588  -302.1763 H6            1 RES     
   13178 H6         449.4666  -336.0555  -303.2105 H6            1 RES     
   13179 H6         441.9734  -330.4033  -300.9065 H6            1 RES     
   13180 H6         442.1757  -329.7848  -299.3847 H6            1 RES     
   13181 H6         439.9300  -329.5475  -300.8279 H6            1 RES     
   13182 H6         439.4548  -331.1090  -300.0920 H6            1 RES     
   13183 H6         440.2658  -328.4211  -298.6894 H6            1 RES     
   13184 H6         439.7814  -329.8970  -297.8262 H6            1 RES     
   13185 H6         437.5486  -329.8968  -298.7059 H6            1 RES     
   13186 H6         438.0490  -328.4897  -297.6934 H6            1 RES     
   13187 H6         438.3080  -327.0360  -299.5710 H6            1 RES     
   13188 H6         437.7272  -328.3172  -300.7111 H6            1 RES     
   13189 H6         435.6006  -328.5308  -299.4350 H6            1 RES     
   13190 H6         436.1466  -327.3399  -298.2060 H6            1 RES     
   13191 H6         434.5142  -326.4016  -299.7825 H6            1 RES     
   13192 H6         435.6323  -326.6885  -301.1688 H6            1 RES     
   13193 H6         437.2943  -325.0983  -300.0866 H6            1 RES     
   13194 H6         435.6927  -324.3187  -300.3208 H6            1 RES     
   13195 H6         436.1687  -324.9029  -298.6840 H6            1 RES     
   13196 C0         452.5586  -336.7239  -291.0040 C0            1 RES     
   13197 C1         451.0214  -336.5855  -291.0631 C1            1 RES     
   13198 C1         450.3884  -337.5229  -290.3110 C1            1 RES     
   13199 S2         448.7195  -337.4588  -290.4259 S2            1 RES     
   13200 C1         448.7792  -336.1770  -291.5414 C1            1 RES     
   13201 C1         450.1063  -335.8227  -291.8077 C1            1 RES     
   13202 C1         451.3570  -338.3666  -289.7255 C1            1 RES     
   13203 C1         452.5923  -338.0005  -290.1624 C1            1 RES     
   13204 C1         453.5838  -338.8775  -289.7392 C1            1 RES     
   13205 C1         453.0364  -339.8931  -288.9372 C1            1 RES     
   13206 S2         451.3555  -339.7249  -288.7654 S2            1 RES     
   13207 H3         450.3535  -335.0833  -292.5456 H3            1 RES     
   13208 H3         454.6322  -338.7907  -289.9982 H3            1 RES     
   13209 N4         454.5637  -342.3250  -286.5281 N4            1 RES     
   13210 C1         453.9296  -341.2184  -287.0154 C1            1 RES     
   13211 C1         453.7511  -341.0451  -288.3988 C1            1 RES     
   13212 C1         454.2191  -342.0448  -289.2534 C1            1 RES     
   13213 N4         454.0603  -342.0288  -290.6017 N4            1 RES     
   13214 S2         454.7417  -343.4657  -291.0521 S2            1 RES     
   13215 N4         455.2435  -344.1304  -289.6222 N4            1 RES     
   13216 C1         454.8566  -343.1936  -288.7213 C1            1 RES     
   13217 C1         455.0339  -343.3089  -287.3451 C1            1 RES     
   13218 H5         453.5693  -340.4628  -286.3226 H5            1 RES     
   13219 C0         453.4081  -335.6250  -290.2736 C0            1 RES     
   13220 C0         453.5499  -335.2991  -288.7388 C0            1 RES     
   13221 C0         454.4425  -334.0101  -288.6754 C0            1 RES     
   13222 C0         454.8143  -333.4933  -287.2801 C0            1 RES     
   13223 C0         455.6504  -332.1931  -287.3396 C0            1 RES     
   13224 C0         457.0254  -332.3087  -288.0338 C0            1 RES     
   13225 C0         457.9498  -333.3985  -287.4629 C0            1 RES     
   13226 C0         458.2313  -333.2239  -285.9599 C0            1 RES     
   13227 C0         459.1081  -334.3434  -285.3808 C0            1 RES     
   13228 C0         460.5449  -334.3325  -285.9295 C0            1 RES     
   13229 C0         461.4443  -335.3834  -285.2592 C0            1 RES     
   13230 C0         461.0180  -336.8208  -285.5595 C0            1 RES     
   13231 C0         452.2666  -335.1684  -287.8548 C0            1 RES     
   13232 C0         451.2604  -334.0107  -288.1379 C0            1 RES     
   13233 C0         449.8903  -334.6130  -288.4636 C0            1 RES     
   13234 C0         448.8373  -333.7023  -289.0885 C0            1 RES     
   13235 C0         448.0881  -332.7812  -288.1368 C0            1 RES     
   13236 C0         447.0501  -331.9943  -288.9643 C0            1 RES     
   13237 C0         446.0795  -331.1588  -288.1264 C0            1 RES     
   13238 C0         445.1243  -332.0282  -287.3060 C0            1 RES     
   13239 H6         453.1323  -334.6983  -290.7082 H6            1 RES     
   13240 H6         454.4558  -335.8392  -290.5839 H6            1 RES     
   13241 H6         454.1168  -336.1430  -288.2861 H6            1 RES     
   13242 H6         453.9257  -333.1800  -289.2050 H6            1 RES     
   13243 H6         455.3843  -334.2233  -289.2249 H6            1 RES     
   13244 H6         455.3533  -334.2796  -286.7135 H6            1 RES     
   13245 H6         453.8882  -333.2379  -286.7267 H6            1 RES     
   13246 H6         455.8025  -331.8331  -286.3011 H6            1 RES     
   13247 H6         455.0659  -331.4047  -287.8635 H6            1 RES     
   13248 H6         457.5358  -331.3231  -287.9538 H6            1 RES     
   13249 H6         456.8822  -332.5090  -289.1172 H6            1 RES     
   13250 H6         457.4933  -334.3952  -287.6395 H6            1 RES     
   13251 H6         458.9009  -333.3560  -288.0333 H6            1 RES     
   13252 H6         457.2703  -333.2675  -285.4082 H6            1 RES     
   13253 H6         458.7002  -332.2340  -285.7676 H6            1 RES     
   13254 H6         459.1572  -334.1953  -284.2799 H6            1 RES     
   13255 H6         458.6141  -335.3177  -285.5791 H6            1 RES     
   13256 H6         460.5531  -334.5022  -287.0261 H6            1 RES     
   13257 H6         460.9847  -333.3318  -285.7260 H6            1 RES     
   13258 H6         461.4592  -335.2206  -284.1593 H6            1 RES     
   13259 H6         462.4787  -335.2475  -285.6422 H6            1 RES     
   13260 H6         460.0093  -337.0369  -285.1534 H6            1 RES     
   13261 H6         461.0202  -336.9998  -286.6558 H6            1 RES     
   13262 H6         461.7338  -337.5233  -285.0836 H6            1 RES     
   13263 H6         452.5960  -335.0544  -286.7999 H6            1 RES     
   13264 H6         451.7533  -336.1536  -287.8402 H6            1 RES     
   13265 H6         451.1488  -333.3569  -287.2439 H6            1 RES     
   13266 H6         451.6245  -333.3865  -288.9791 H6            1 RES     
   13267 H6         449.4735  -335.1955  -287.6152 H6            1 RES     
   13268 H6         450.1074  -335.3038  -289.2504 H6            1 RES     
   13269 H6         449.2929  -333.1371  -289.9053 H6            1 RES     
   13270 H6         448.0721  -334.3731  -289.5413 H6            1 RES     
   13271 H6         447.5875  -333.4251  -287.3831 H6            1 RES     
   13272 H6         448.7790  -332.0820  -287.6201 H6            1 RES     
   13273 H6         447.6030  -331.3175  -289.6547 H6            1 RES     
   13274 H6         446.4435  -332.6882  -289.5896 H6            1 RES     
   13275 H6         445.4602  -330.5568  -288.8272 H6            1 RES     
   13276 H6         446.6400  -330.4636  -287.4666 H6            1 RES     
   13277 H6         445.6688  -332.6317  -286.5532 H6            1 RES     
   13278 H6         444.3994  -331.3803  -286.7727 H6            1 RES     
   13279 H6         444.5566  -332.7109  -287.9771 H6            1 RES     
   13280 C0         453.0114  -336.9291  -292.5036 C0            1 RES     
   13281 C0         453.8608  -335.8917  -293.3687 C0            1 RES     
   13282 C0         453.5933  -336.2450  -294.8707 C0            1 RES     
   13283 C0         454.5139  -335.5487  -295.8933 C0            1 RES     
   13284 C0         454.2002  -335.9064  -297.3568 C0            1 RES     
   13285 C0         454.3184  -337.3972  -297.7208 C0            1 RES     
   13286 C0         455.6653  -338.0508  -297.3699 C0            1 RES     
   13287 C0         456.8724  -337.3543  -298.0225 C0            1 RES     
   13288 C0         458.2110  -338.0164  -297.6579 C0            1 RES     
   13289 C0         458.3537  -339.4361  -298.2351 C0            1 RES     
   13290 C0         459.7381  -340.0518  -297.9789 C0            1 RES     
   13291 C0         460.0226  -340.3015  -296.4977 C0            1 RES     
   13292 C0         453.8913  -334.3212  -293.1464 C0            1 RES     
   13293 C0         452.6505  -333.4261  -293.4243 C0            1 RES     
   13294 C0         451.9813  -332.9335  -292.1286 C0            1 RES     
   13295 C0         450.7194  -332.1016  -292.2877 C0            1 RES     
   13296 C0         450.8907  -330.6775  -292.7974 C0            1 RES     
   13297 C0         449.5105  -329.9953  -292.7044 C0            1 RES     
   13298 C0         449.5177  -328.5012  -293.0326 C0            1 RES     
   13299 C0         450.2741  -327.6805  -291.9869 C0            1 RES     
   13300 H6         452.1158  -337.2348  -293.0929 H6            1 RES     
   13301 H6         453.6083  -337.8683  -292.5420 H6            1 RES     
   13302 H6         454.9174  -336.1687  -293.1473 H6            1 RES     
   13303 H6         452.5385  -335.9982  -295.1193 H6            1 RES     
   13304 H6         453.7246  -337.3421  -294.9895 H6            1 RES     
   13305 H6         455.5720  -335.7885  -295.6577 H6            1 RES     
   13306 H6         454.3832  -334.4504  -295.8434 H6            1 RES     
   13307 H6         454.8901  -335.3224  -298.0026 H6            1 RES     
   13308 H6         453.1688  -335.5701  -297.6024 H6            1 RES     
   13309 H6         454.1385  -337.4958  -298.8137 H6            1 RES     
   13310 H6         453.5150  -337.9652  -297.2050 H6            1 RES     
   13311 H6         455.7991  -338.0573  -296.2670 H6            1 RES     
   13312 H6         455.6056  -339.1048  -297.7099 H6            1 RES     
   13313 H6         456.9235  -336.3074  -297.6570 H6            1 RES     
   13314 H6         456.7532  -337.3315  -299.1274 H6            1 RES     
   13315 H6         459.0238  -337.3870  -298.0813 H6            1 RES     
   13316 H6         458.3174  -338.0245  -296.5523 H6            1 RES     
   13317 H6         457.5816  -340.1150  -297.8182 H6            1 RES     
   13318 H6         458.2103  -339.3770  -299.3362 H6            1 RES     
   13319 H6         460.5273  -339.3954  -298.4055 H6            1 RES     
   13320 H6         459.7811  -341.0304  -298.5039 H6            1 RES     
   13321 H6         460.0462  -339.3521  -295.9257 H6            1 RES     
   13322 H6         459.2504  -340.9735  -296.0664 H6            1 RES     
   13323 H6         461.0149  -340.7884  -296.3924 H6            1 RES     
   13324 H6         454.6738  -333.9572  -293.8373 H6            1 RES     
   13325 H6         454.3943  -334.0232  -292.2073 H6            1 RES     
   13326 H6         453.0084  -332.4964  -293.9192 H6            1 RES     
   13327 H6         451.9494  -333.9257  -294.1230 H6            1 RES     
   13328 H6         452.7186  -332.3858  -291.4987 H6            1 RES     
   13329 H6         451.6205  -333.7818  -291.5578 H6            1 RES     
   13330 H6         449.9724  -332.6595  -292.8932 H6            1 RES     
   13331 H6         450.3336  -331.9774  -291.2624 H6            1 RES     
   13332 H6         451.6236  -330.1673  -292.1372 H6            1 RES     
   13333 H6         451.2686  -330.6671  -293.8409 H6            1 RES     
   13334 H6         448.8221  -330.5137  -293.4077 H6            1 RES     
   13335 H6         449.0912  -330.1099  -291.6783 H6            1 RES     
   13336 H6         448.4604  -328.1562  -293.0256 H6            1 RES     
   13337 H6         449.9389  -328.3343  -294.0437 H6            1 RES     
   13338 H6         451.3503  -327.9437  -291.9659 H6            1 RES     
   13339 H6         450.1851  -326.6025  -292.2330 H6            1 RES     
   13340 H6         449.8383  -327.8475  -290.9773 H6            1 RES     
   13341 C0         458.8376  -346.7191  -285.4794 C0            1 RES     
   13342 C1         457.5191  -346.0159  -285.8705 C1            1 RES     
   13343 C1         456.4512  -346.8539  -285.8196 C1            1 RES     
   13344 S2         455.0207  -346.1473  -286.3264 S2            1 RES     
   13345 C1         455.7956  -344.6762  -286.6815 C1            1 RES     
   13346 C1         457.1634  -344.7643  -286.4001 C1            1 RES     
   13347 C1         456.8993  -348.1400  -285.4481 C1            1 RES     
   13348 C1         458.2546  -348.1252  -285.3307 C1            1 RES     
   13349 C1         458.7793  -349.3924  -285.1068 C1            1 RES     
   13350 C1         457.7510  -350.3464  -285.0262 C1            1 RES     
   13351 S2         456.2202  -349.6447  -285.2447 S2            1 RES     
   13352 H3         457.8374  -343.9610  -286.6297 H3            1 RES     
   13353 H3         459.8362  -349.6119  -285.0132 H3            1 RES     
   13354 N4         457.6303  -353.8397  -283.6724 N4            1 RES     
   13355 C1         457.5007  -352.4830  -283.7534 C1            1 RES     
   13356 C1         457.9226  -351.7895  -284.9010 C1            1 RES     
   13357 C1         458.4542  -352.5292  -285.9590 C1            1 RES     
   13358 N4         458.8450  -351.9909  -287.1426 N4            1 RES     
   13359 S2         459.3116  -353.3261  -287.9978 S2            1 RES     
   13360 N4         459.0513  -354.5786  -286.9480 N4            1 RES     
   13361 C1         458.5600  -353.9391  -285.8579 C1            1 RES     
   13362 C1         458.1527  -354.5794  -284.6905 C1            1 RES     
   13363 H5         457.0746  -351.9378  -282.9156 H5            1 RES     
   13364 C0         459.5528  -346.3335  -284.1368 C0            1 RES     
   13365 C0         459.1493  -346.6346  -282.6440 C0            1 RES     
   13366 C0         460.2070  -345.8700  -281.7726 C0            1 RES     
   13367 C0         460.1059  -346.0423  -280.2520 C0            1 RES     
   13368 C0         461.1637  -345.2049  -279.4952 C0            1 RES     
   13369 C0         462.6379  -345.5684  -279.7784 C0            1 RES     
   13370 C0         462.9977  -347.0459  -279.5423 C0            1 RES     
   13371 C0         462.6980  -347.5179  -278.1084 C0            1 RES     
   13372 C0         463.0055  -349.0064  -277.8913 C0            1 RES     
   13373 C0         464.5058  -349.3337  -277.9771 C0            1 RES     
   13374 C0         464.8128  -350.8027  -277.6452 C0            1 RES     
   13375 C0         464.2317  -351.7844  -278.6634 C0            1 RES     
   13376 C0         457.6859  -346.3572  -282.1681 C0            1 RES     
   13377 C0         457.1552  -344.8907  -282.1496 C0            1 RES     
   13378 C0         455.9264  -344.7964  -283.0592 C0            1 RES     
   13379 C0         455.4334  -343.4078  -283.4560 C0            1 RES     
   13380 C0         454.5952  -342.6667  -282.4247 C0            1 RES     
   13381 C0         454.1676  -341.3205  -283.0462 C0            1 RES     
   13382 C0         453.1574  -340.5330  -282.2087 C0            1 RES     
   13383 C0         451.7901  -341.2177  -282.1534 C0            1 RES     
   13384 H6         459.6824  -345.2817  -284.1604 H6            1 RES     
   13385 H6         460.5624  -346.7951  -284.2233 H6            1 RES     
   13386 H6         459.2908  -347.7278  -282.4912 H6            1 RES     
   13387 H6         460.1373  -344.7806  -281.9840 H6            1 RES     
   13388 H6         461.2161  -346.2093  -282.0904 H6            1 RES     
   13389 H6         460.1905  -347.1149  -279.9834 H6            1 RES     
   13390 H6         459.1185  -345.6737  -279.9077 H6            1 RES     
   13391 H6         460.9718  -345.3086  -278.4072 H6            1 RES     
   13392 H6         461.0221  -344.1284  -279.7384 H6            1 RES     
   13393 H6         463.2806  -344.9316  -279.1304 H6            1 RES     
   13394 H6         462.8908  -345.3144  -280.8300 H6            1 RES     
   13395 H6         462.4386  -347.6786  -280.2635 H6            1 RES     
   13396 H6         464.0800  -347.1604  -279.7597 H6            1 RES     
   13397 H6         461.6139  -347.3942  -277.9100 H6            1 RES     
   13398 H6         463.2604  -346.9011  -277.3736 H6            1 RES     
   13399 H6         462.6501  -349.2770  -276.8731 H6            1 RES     
   13400 H6         462.4263  -349.5985  -278.6307 H6            1 RES     
   13401 H6         464.9058  -349.1041  -278.9864 H6            1 RES     
   13402 H6         465.0402  -348.7007  -277.2355 H6            1 RES     
   13403 H6         464.4307  -351.0478  -276.6302 H6            1 RES     
   13404 H6         465.9167  -350.9319  -277.6388 H6            1 RES     
   13405 H6         463.1240  -351.7419  -278.6796 H6            1 RES     
   13406 H6         464.6242  -351.5608  -279.6781 H6            1 RES     
   13407 H6         464.5284  -352.8181  -278.3877 H6            1 RES     
   13408 H6         457.5912  -346.7442  -281.1309 H6            1 RES     
   13409 H6         457.0036  -347.0253  -282.7361 H6            1 RES     
   13410 H6         456.8496  -344.5941  -281.1211 H6            1 RES     
   13411 H6         457.9485  -344.1940  -282.4887 H6            1 RES     
   13412 H6         455.0923  -345.4402  -282.7089 H6            1 RES     
   13413 H6         456.2759  -345.2006  -283.9853 H6            1 RES     
   13414 H6         456.2858  -342.8041  -283.7770 H6            1 RES     
   13415 H6         454.7793  -343.5504  -284.3462 H6            1 RES     
   13416 H6         453.7098  -343.3001  -282.2049 H6            1 RES     
   13417 H6         455.1641  -342.4945  -281.4866 H6            1 RES     
   13418 H6         455.0819  -340.6998  -283.1835 H6            1 RES     
   13419 H6         453.7176  -341.4816  -284.0523 H6            1 RES     
   13420 H6         453.0129  -339.5437  -282.6962 H6            1 RES     
   13421 H6         453.5529  -340.3658  -281.1848 H6            1 RES     
   13422 H6         451.8471  -342.1987  -281.6420 H6            1 RES     
   13423 H6         451.0773  -340.5768  -281.5959 H6            1 RES     
   13424 H6         451.3954  -341.3674  -283.1833 H6            1 RES     
   13425 C0         459.7847  -346.5437  -286.7316 C0            1 RES     
   13426 C0         461.1123  -345.6596  -286.7768 C0            1 RES     
   13427 C0         461.3845  -345.3475  -288.2871 C0            1 RES     
   13428 C0         462.7619  -344.7297  -288.6021 C0            1 RES     
   13429 C0         462.9768  -344.4177  -290.0937 C0            1 RES     
   13430 C0         462.8949  -345.6230  -291.0474 C0            1 RES     
   13431 C0         463.8149  -346.8024  -290.6906 C0            1 RES     
   13432 C0         465.3028  -346.4173  -290.6151 C0            1 RES     
   13433 C0         466.2081  -347.6058  -290.2527 C0            1 RES     
   13434 C0         466.2474  -348.6849  -291.3495 C0            1 RES     
   13435 C0         467.2463  -349.8125  -291.0465 C0            1 RES     
   13436 C0         466.8638  -350.6446  -289.8223 C0            1 RES     
   13437 C0         461.4003  -344.3910  -285.8688 C0            1 RES     
   13438 C0         460.5999  -343.0671  -286.0262 C0            1 RES     
   13439 C0         459.6032  -342.8443  -284.8746 C0            1 RES     
   13440 C0         458.7234  -341.6084  -284.9649 C0            1 RES     
   13441 C0         459.3919  -340.2648  -284.7100 C0            1 RES     
   13442 C0         458.2744  -339.2019  -284.6843 C0            1 RES     
   13443 C0         458.7406  -337.8004  -284.2861 C0            1 RES     
   13444 C0         459.1874  -337.7302  -282.8251 C0            1 RES     
   13445 H6         459.1487  -346.2759  -287.6072 H6            1 RES     
   13446 H6         460.1246  -347.5605  -287.0326 H6            1 RES     
   13447 H6         461.9073  -346.3625  -286.4362 H6            1 RES     
   13448 H6         460.5951  -344.6619  -288.6640 H6            1 RES     
   13449 H6         461.3053  -346.3022  -288.8502 H6            1 RES     
   13450 H6         463.5609  -345.4059  -288.2322 H6            1 RES     
   13451 H6         462.8690  -343.7503  -288.0970 H6            1 RES     
   13452 H6         463.9756  -343.9427  -290.1989 H6            1 RES     
   13453 H6         462.2270  -343.6644  -290.4215 H6            1 RES     
   13454 H6         463.1413  -345.2644  -292.0707 H6            1 RES     
   13455 H6         461.8494  -345.9977  -291.0755 H6            1 RES     
   13456 H6         463.5001  -347.2383  -289.7184 H6            1 RES     
   13457 H6         463.6614  -347.5735  -291.4730 H6            1 RES     
   13458 H6         465.4370  -345.6581  -289.8165 H6            1 RES     
   13459 H6         465.6349  -345.9719  -291.5777 H6            1 RES     
   13460 H6         467.2393  -347.2134  -290.1155 H6            1 RES     
   13461 H6         465.8674  -348.0340  -289.2861 H6            1 RES     
   13462 H6         465.2441  -349.1326  -291.5038 H6            1 RES     
   13463 H6         466.5645  -348.2005  -292.2989 H6            1 RES     
   13464 H6         468.2637  -349.3871  -290.9061 H6            1 RES     
   13465 H6         467.2739  -350.4921  -291.9254 H6            1 RES     
   13466 H6         466.8708  -350.0308  -288.8991 H6            1 RES     
   13467 H6         465.8563  -351.0913  -289.9613 H6            1 RES     
   13468 H6         467.6004  -351.4651  -289.6925 H6            1 RES     
   13469 H6         462.4505  -344.1243  -286.0877 H6            1 RES     
   13470 H6         461.5469  -344.6425  -284.8015 H6            1 RES     
   13471 H6         461.3195  -342.2240  -285.9336 H6            1 RES     
   13472 H6         460.1375  -343.0002  -287.0318 H6            1 RES     
   13473 H6         460.1356  -342.8592  -283.8965 H6            1 RES     
   13474 H6         458.8692  -343.6423  -284.8665 H6            1 RES     
   13475 H6         458.1706  -341.6073  -285.9294 H6            1 RES     
   13476 H6         458.0042  -341.7143  -284.1360 H6            1 RES     
   13477 H6         459.9001  -340.3208  -283.7243 H6            1 RES     
   13478 H6         460.1410  -340.0334  -285.4957 H6            1 RES     
   13479 H6         457.8210  -339.1544  -285.6989 H6            1 RES     
   13480 H6         457.4720  -339.5021  -283.9715 H6            1 RES     
   13481 H6         457.8704  -337.1175  -284.4016 H6            1 RES     
   13482 H6         459.5504  -337.4610  -284.9620 H6            1 RES     
   13483 H6         460.0815  -338.3591  -282.6440 H6            1 RES     
   13484 H6         459.4434  -336.6813  -282.5705 H6            1 RES     
   13485 H6         458.3652  -338.0639  -282.1545 H6            1 RES     
   13486 C0         460.0608  -359.5639  -283.6453 C0            1 RES     
   13487 C1         459.1930  -358.3382  -284.0063 C1            1 RES     
   13488 C1         458.0340  -358.6885  -284.6222 C1            1 RES     
   13489 S2         457.1123  -357.3788  -285.1098 S2            1 RES     
   13490 C1         458.2694  -356.2690  -284.5437 C1            1 RES     
   13491 C1         459.3605  -356.9436  -283.9849 C1            1 RES     
   13492 C1         458.0033  -360.0920  -284.7699 C1            1 RES     
   13493 C1         459.1704  -360.6164  -284.3076 C1            1 RES     
   13494 C1         459.2703  -361.9807  -284.5523 C1            1 RES     
   13495 C1         458.1092  -362.4560  -285.1851 C1            1 RES     
   13496 S2         456.9839  -361.2134  -285.4555 S2            1 RES     
   13497 H3         460.2302  -356.4171  -283.6402 H3            1 RES     
   13498 H3         460.1283  -362.5899  -284.2946 H3            1 RES     
   13499 N4         456.6964  -365.8976  -285.6432 N4            1 RES     
   13500 C1         456.9130  -364.6500  -285.1325 C1            1 RES     
   13501 C1         457.8936  -363.8088  -285.6863 C1            1 RES     
   13502 C1         458.6194  -364.2766  -286.7831 C1            1 RES     
   13503 N4         459.5520  -363.5456  -287.4460 N4            1 RES     
   13504 S2         460.0083  -364.5743  -288.6565 S2            1 RES     
   13505 N4         459.0865  -365.9238  -288.3967 N4            1 RES     
   13506 C1         458.3618  -365.5683  -287.3071 C1            1 RES     
   13507 C1         457.3983  -366.3759  -286.7087 C1            1 RES     
   13508 H5         456.3247  -364.3126  -284.2836 H5            1 RES     
   13509 C0         460.2578  -359.9571  -282.1388 C0            1 RES     
   13510 C0         459.2452  -360.5855  -281.1085 C0            1 RES     
   13511 C0         460.0169  -360.6138  -279.7424 C0            1 RES     
   13512 C0         459.2918  -361.2513  -278.5507 C0            1 RES     
   13513 C0         460.1247  -361.1771  -277.2493 C0            1 RES     
   13514 C0         461.4714  -361.9334  -277.2684 C0            1 RES     
   13515 C0         461.3726  -363.4231  -277.6412 C0            1 RES     
   13516 C0         460.4378  -364.2168  -276.7112 C0            1 RES     
   13517 C0         460.2973  -365.6904  -277.1189 C0            1 RES     
   13518 C0         461.5979  -366.4931  -276.9465 C0            1 RES     
   13519 C0         461.4163  -367.9893  -277.2477 C0            1 RES     
   13520 C0         461.0795  -368.2725  -278.7121 C0            1 RES     
   13521 C0         457.8135  -359.9743  -280.9613 C0            1 RES     
   13522 C0         457.6574  -358.5194  -280.4213 C0            1 RES     
   13523 C0         456.9382  -357.6733  -281.4762 C0            1 RES     
   13524 C0         456.9614  -356.1559  -281.3157 C0            1 RES     
   13525 C0         455.9727  -355.5652  -280.3212 C0            1 RES     
   13526 C0         456.1331  -354.0308  -280.3541 C0            1 RES     
   13527 C0         455.0771  -353.2699  -279.5490 C0            1 RES     
   13528 C0         453.6831  -353.3796  -280.1703 C0            1 RES     
   13529 H6         460.6158  -359.0878  -281.6490 H6            1 RES     
   13530 H6         461.0908  -360.6957  -282.1565 H6            1 RES     
   13531 H6         459.0694  -361.6345  -281.4357 H6            1 RES     
   13532 H6         460.2790  -359.5740  -279.4480 H6            1 RES     
   13533 H6         460.9673  -361.1667  -279.9020 H6            1 RES     
   13534 H6         459.0243  -362.3018  -278.7849 H6            1 RES     
   13535 H6         458.3570  -360.6902  -278.3496 H6            1 RES     
   13536 H6         459.5035  -361.5726  -276.4193 H6            1 RES     
   13537 H6         460.3322  -360.1113  -277.0067 H6            1 RES     
   13538 H6         461.9319  -361.8428  -276.2594 H6            1 RES     
   13539 H6         462.1661  -361.4430  -277.9835 H6            1 RES     
   13540 H6         461.0163  -363.5155  -278.6889 H6            1 RES     
   13541 H6         462.3987  -363.8434  -277.5944 H6            1 RES     
   13542 H6         459.4196  -363.7814  -276.7706 H6            1 RES     
   13543 H6         460.7883  -364.1441  -275.6583 H6            1 RES     
   13544 H6         459.5206  -366.1461  -276.4667 H6            1 RES     
   13545 H6         459.9393  -365.7341  -278.1690 H6            1 RES     
   13546 H6         462.4019  -366.0924  -277.5979 H6            1 RES     
   13547 H6         461.9242  -366.3985  -275.8878 H6            1 RES     
   13548 H6         460.6225  -368.4120  -276.5937 H6            1 RES     
   13549 H6         462.3706  -368.5075  -277.0111 H6            1 RES     
   13550 H6         460.1064  -367.8243  -278.9973 H6            1 RES     
   13551 H6         461.8776  -367.8722  -279.3729 H6            1 RES     
   13552 H6         461.0071  -369.3694  -278.8670 H6            1 RES     
   13553 H6         457.2363  -360.6325  -280.2772 H6            1 RES     
   13554 H6         457.2792  -360.1051  -281.9267 H6            1 RES     
   13555 H6         457.0468  -358.5068  -279.4906 H6            1 RES     
   13556 H6         458.6530  -358.0909  -280.1870 H6            1 RES     
   13557 H6         455.9135  -358.0450  -281.6878 H6            1 RES     
   13558 H6         457.5241  -357.8303  -282.3568 H6            1 RES     
   13559 H6         457.9821  -355.8357  -281.0924 H6            1 RES     
   13560 H6         456.6952  -355.7317  -282.3105 H6            1 RES     
   13561 H6         454.9557  -355.8640  -280.6527 H6            1 RES     
   13562 H6         456.1506  -355.9492  -279.2945 H6            1 RES     
   13563 H6         457.1407  -353.7820  -279.9504 H6            1 RES     
   13564 H6         456.0904  -353.6572  -281.4026 H6            1 RES     
   13565 H6         455.3586  -352.1939  -279.5549 H6            1 RES     
   13566 H6         455.0655  -353.6245  -278.4969 H6            1 RES     
   13567 H6         453.3160  -354.4248  -280.1633 H6            1 RES     
   13568 H6         452.9700  -352.7576  -279.5922 H6            1 RES     
   13569 H6         453.7017  -353.0083  -281.2194 H6            1 RES     
   13570 C0         461.4365  -359.3264  -284.3847 C0            1 RES     
   13571 C0         462.8353  -359.0335  -283.6750 C0            1 RES     
   13572 C0         463.7400  -358.3414  -284.7496 C0            1 RES     
   13573 C0         465.2301  -358.2034  -284.3773 C0            1 RES     
   13574 C0         466.0763  -357.4969  -285.4511 C0            1 RES     
   13575 C0         466.1104  -358.1783  -286.8308 C0            1 RES     
   13576 C0         466.5304  -359.6576  -286.8189 C0            1 RES     
   13577 C0         467.9144  -359.8961  -286.1899 C0            1 RES     
   13578 C0         468.3170  -361.3797  -286.1812 C0            1 RES     
   13579 C0         468.5435  -361.9471  -287.5940 C0            1 RES     
   13580 C0         469.0664  -363.3919  -287.5838 C0            1 RES     
   13581 C0         468.0603  -364.3938  -287.0171 C0            1 RES     
   13582 C0         463.0171  -358.3570  -282.2515 C0            1 RES     
   13583 C0         462.6577  -356.8658  -281.9967 C0            1 RES     
   13584 C0         461.3654  -356.7063  -281.1759 C0            1 RES     
   13585 C0         460.8892  -355.2851  -280.9245 C0            1 RES     
   13586 C0         461.6837  -354.4574  -279.9240 C0            1 RES     
   13587 C0         460.9115  -353.1388  -279.7144 C0            1 RES     
   13588 C0         461.4819  -352.2366  -278.6187 C0            1 RES     
   13589 C0         461.3230  -352.8447  -277.2244 C0            1 RES     
   13590 H6         461.2716  -358.5593  -285.1767 H6            1 RES     
   13591 H6         461.6327  -360.2252  -285.0121 H6            1 RES     
   13592 H6         463.2556  -360.0497  -283.4941 H6            1 RES     
   13593 H6         463.3351  -357.3296  -284.9679 H6            1 RES     
   13594 H6         463.6787  -358.9424  -285.6823 H6            1 RES     
   13595 H6         465.6484  -359.2082  -284.1583 H6            1 RES     
   13596 H6         465.3445  -357.5712  -283.4756 H6            1 RES     
   13597 H6         467.1145  -357.4161  -285.0639 H6            1 RES     
   13598 H6         465.7025  -356.4582  -285.5864 H6            1 RES     
   13599 H6         466.8113  -357.6050  -287.4761 H6            1 RES     
   13600 H6         465.1051  -358.1093  -287.2985 H6            1 RES     
   13601 H6         465.7713  -360.2549  -286.2700 H6            1 RES     
   13602 H6         466.5295  -359.9969  -287.8748 H6            1 RES     
   13603 H6         467.8890  -359.5655  -285.1306 H6            1 RES     
   13604 H6         468.6873  -359.3002  -286.7218 H6            1 RES     
   13605 H6         469.2707  -361.4660  -285.6163 H6            1 RES     
   13606 H6         467.5388  -361.9591  -285.6404 H6            1 RES     
   13607 H6         467.6091  -361.9129  -288.1913 H6            1 RES     
   13608 H6         469.3063  -361.3166  -288.1009 H6            1 RES     
   13609 H6         470.0139  -363.4457  -287.0048 H6            1 RES     
   13610 H6         469.2854  -363.6852  -288.6332 H6            1 RES     
   13611 H6         467.8402  -364.1854  -285.9507 H6            1 RES     
   13612 H6         467.1164  -364.3626  -287.6020 H6            1 RES     
   13613 H6         468.4852  -365.4174  -287.0845 H6            1 RES     
   13614 H6         464.0997  -358.4357  -282.0419 H6            1 RES     
   13615 H6         462.6735  -358.9970  -281.4172 H6            1 RES     
   13616 H6         463.4506  -356.4331  -281.3476 H6            1 RES     
   13617 H6         462.6542  -356.2909  -282.9449 H6            1 RES     
   13618 H6         461.4536  -357.2524  -280.2092 H6            1 RES     
   13619 H6         460.5301  -357.1295  -281.7226 H6            1 RES     
   13620 H6         460.7744  -354.7482  -281.8911 H6            1 RES     
   13621 H6         459.8985  -355.3997  -280.4546 H6            1 RES     
   13622 H6         461.7382  -355.0329  -278.9758 H6            1 RES     
   13623 H6         462.7120  -354.2604  -280.2924 H6            1 RES     
   13624 H6         460.9153  -352.5808  -280.6766 H6            1 RES     
   13625 H6         459.8490  -353.3506  -279.4532 H6            1 RES     
   13626 H6         460.9017  -351.2879  -278.6364 H6            1 RES     
   13627 H6         462.5452  -352.0063  -278.8287 H6            1 RES     
   13628 H6         461.9109  -353.7782  -277.1199 H6            1 RES     
   13629 H6         461.6841  -352.1205  -276.4657 H6            1 RES     
   13630 H6         460.2521  -353.0636  -277.0195 H6            1 RES     
   13631 C0         457.5872  -371.7422  -287.5722 C0            1 RES     
   13632 C1         457.2257  -370.2406  -287.5531 C1            1 RES     
   13633 C1         456.3552  -369.9056  -288.5406 C1            1 RES     
   13634 S2         456.0139  -368.2680  -288.6055 S2            1 RES     
   13635 C1         457.0705  -367.9290  -287.3173 C1            1 RES     
   13636 C1         457.6759  -369.1046  -286.8599 C1            1 RES     
   13637 C1         456.0747  -371.0557  -289.3095 C1            1 RES     
   13638 C1         456.8191  -372.0961  -288.8465 C1            1 RES     
   13639 C1         456.7020  -373.2267  -289.6462 C1            1 RES     
   13640 C1         455.8085  -372.9931  -290.7051 C1            1 RES     
   13641 S2         455.1853  -371.4140  -290.6686 S2            1 RES     
   13642 H3         458.4337  -369.0877  -286.0998 H3            1 RES     
   13643 H3         457.2319  -374.1564  -289.4770 H3            1 RES     
   13644 N4         453.9644  -375.2901  -293.0233 N4            1 RES     
   13645 C1         454.2339  -374.4684  -291.9667 C1            1 RES     
   13646 C1         455.5129  -373.9094  -291.8009 C1            1 RES     
   13647 C1         456.4875  -374.2002  -292.7570 C1            1 RES     
   13648 N4         457.7421  -373.6813  -292.7466 N4            1 RES     
   13649 S2         458.3966  -374.3185  -294.1241 S2            1 RES     
   13650 N4         457.1727  -375.2364  -294.7550 N4            1 RES     
   13651 C1         456.1771  -375.0405  -293.8556 C1            1 RES     
   13652 C1         454.9032  -375.5921  -293.9636 C1            1 RES     
   13653 H5         453.4503  -374.2549  -291.2448 H5            1 RES     
   13654 C0         457.0849  -372.6749  -286.4144 C0            1 RES     
   13655 C0         455.6374  -373.2030  -286.0861 C0            1 RES     
   13656 C0         455.7840  -373.9825  -284.7321 C0            1 RES     
   13657 C0         454.5279  -374.6796  -284.1950 C0            1 RES     
   13658 C0         454.7773  -375.3706  -282.8337 C0            1 RES     
   13659 C0         455.8194  -376.5106  -282.8389 C0            1 RES     
   13660 C0         455.5474  -377.6325  -283.8565 C0            1 RES     
   13661 C0         454.1722  -378.2972  -283.6681 C0            1 RES     
   13662 C0         453.8802  -379.3777  -284.7192 C0            1 RES     
   13663 C0         454.7958  -380.6073  -284.5942 C0            1 RES     
   13664 C0         454.4203  -381.7291  -285.5754 C0            1 RES     
   13665 C0         454.6316  -381.3439  -287.0401 C0            1 RES     
   13666 C0         454.4370  -372.2013  -286.0598 C0            1 RES     
   13667 C0         454.4081  -371.0741  -284.9822 C0            1 RES     
   13668 C0         454.3675  -369.7149  -285.6873 C0            1 RES     
   13669 C0         454.6613  -368.4682  -284.8579 C0            1 RES     
   13670 C0         453.5193  -367.9395  -284.0024 C0            1 RES     
   13671 C0         454.0154  -366.6614  -283.2942 C0            1 RES     
   13672 C0         452.9254  -365.8956  -282.5407 C0            1 RES     
   13673 C0         451.9004  -365.2649  -283.4857 C0            1 RES     
   13674 H6         457.4049  -372.2245  -285.5097 H6            1 RES     
   13675 H6         457.6718  -373.6120  -286.5451 H6            1 RES     
   13676 H6         455.3765  -373.9317  -286.8858 H6            1 RES     
   13677 H6         456.1329  -373.2821  -283.9420 H6            1 RES     
   13678 H6         456.5726  -374.7531  -284.8690 H6            1 RES     
   13679 H6         454.1482  -375.4081  -284.9400 H6            1 RES     
   13680 H6         453.7387  -373.9219  -284.0150 H6            1 RES     
   13681 H6         453.8094  -375.7717  -282.4682 H6            1 RES     
   13682 H6         455.1035  -374.6098  -282.0903 H6            1 RES     
   13683 H6         455.8547  -376.9500  -281.8170 H6            1 RES     
   13684 H6         456.8288  -376.0943  -283.0442 H6            1 RES     
   13685 H6         455.6200  -377.2195  -284.8847 H6            1 RES     
   13686 H6         456.3520  -378.3876  -283.7376 H6            1 RES     
   13687 H6         453.3829  -377.5275  -283.7889 H6            1 RES     
   13688 H6         454.0880  -378.7268  -282.6459 H6            1 RES     
   13689 H6         452.8300  -379.7123  -284.5732 H6            1 RES     
   13690 H6         453.9630  -378.9212  -285.7279 H6            1 RES     
   13691 H6         455.8580  -380.3304  -284.7572 H6            1 RES     
   13692 H6         454.6927  -381.0111  -283.5634 H6            1 RES     
   13693 H6         453.3615  -382.0295  -285.4175 H6            1 RES     
   13694 H6         455.0646  -382.6081  -285.3579 H6            1 RES     
   13695 H6         453.9741  -380.5017  -287.3358 H6            1 RES     
   13696 H6         455.6920  -381.0621  -287.2129 H6            1 RES     
   13697 H6         454.3847  -382.2115  -287.6873 H6            1 RES     
   13698 H6         453.5074  -372.7950  -285.9259 H6            1 RES     
   13699 H6         454.3098  -371.7848  -287.0819 H6            1 RES     
   13700 H6         453.5006  -371.1613  -284.3435 H6            1 RES     
   13701 H6         455.2999  -371.1498  -284.3275 H6            1 RES     
   13702 H6         453.4533  -369.5875  -286.3046 H6            1 RES     
   13703 H6         455.2012  -369.7607  -286.3552 H6            1 RES     
   13704 H6         455.5559  -368.6427  -284.2550 H6            1 RES     
   13705 H6         454.9080  -367.6602  -285.5837 H6            1 RES     
   13706 H6         452.6753  -367.7105  -284.6870 H6            1 RES     
   13707 H6         453.1902  -368.6914  -283.2544 H6            1 RES     
   13708 H6         454.8116  -366.9553  -282.5732 H6            1 RES     
   13709 H6         454.4715  -365.9605  -284.0300 H6            1 RES     
   13710 H6         453.4174  -365.0672  -281.9851 H6            1 RES     
   13711 H6         452.4236  -366.5614  -281.8074 H6            1 RES     
   13712 H6         451.3383  -366.0357  -284.0489 H6            1 RES     
   13713 H6         451.1747  -364.6662  -282.8986 H6            1 RES     
   13714 H6         452.4109  -364.5881  -284.2070 H6            1 RES     
   13715 C0         459.1581  -371.7854  -287.7341 C0            1 RES     
   13716 C0         460.1933  -372.2901  -286.6297 C0            1 RES     
   13717 C0         461.5759  -371.6522  -286.9952 C0            1 RES     
   13718 C0         462.7907  -372.2076  -286.2245 C0            1 RES     
   13719 C0         464.1239  -371.5361  -286.5981 C0            1 RES     
   13720 C0         464.5447  -371.6602  -288.0734 C0            1 RES     
   13721 C0         464.5873  -373.0959  -288.6224 C0            1 RES     
   13722 C0         465.5232  -374.0266  -287.8310 C0            1 RES     
   13723 C0         465.5505  -375.4587  -288.3892 C0            1 RES     
   13724 C0         466.1813  -375.5433  -289.7906 C0            1 RES     
   13725 C0         466.3240  -376.9865  -290.2985 C0            1 RES     
   13726 C0         464.9816  -377.6793  -290.5327 C0            1 RES     
   13727 C0         459.9469  -372.2646  -285.0627 C0            1 RES     
   13728 C0         459.8565  -370.9328  -284.2651 C0            1 RES     
   13729 C0         458.4161  -370.6054  -283.8324 C0            1 RES     
   13730 C0         458.2072  -369.2902  -283.1000 C0            1 RES     
   13731 C0         458.7072  -369.2122  -281.6644 C0            1 RES     
   13732 C0         458.2278  -367.8626  -281.0918 C0            1 RES     
   13733 C0         458.5070  -367.6711  -279.6000 C0            1 RES     
   13734 C0         457.6833  -368.6203  -278.7284 C0            1 RES     
   13735 H6         459.4916  -370.7884  -288.1054 H6            1 RES     
   13736 H6         459.3803  -372.4167  -288.6241 H6            1 RES     
   13737 H6         460.2724  -373.3845  -286.8250 H6            1 RES     
   13738 H6         461.5242  -370.5543  -286.8297 H6            1 RES     
   13739 H6         461.7541  -371.8264  -288.0781 H6            1 RES     
   13740 H6         462.8555  -373.3046  -286.3827 H6            1 RES     
   13741 H6         462.6790  -372.0152  -285.1399 H6            1 RES     
   13742 H6         464.9167  -371.9805  -285.9591 H6            1 RES     
   13743 H6         464.0735  -370.4550  -286.3415 H6            1 RES     
   13744 H6         465.5507  -371.1986  -288.1802 H6            1 RES     
   13745 H6         463.8461  -371.0705  -288.7045 H6            1 RES     
   13746 H6         463.5620  -373.5237  -288.6239 H6            1 RES     
   13747 H6         464.9257  -373.0237  -289.6761 H6            1 RES     
   13748 H6         465.1581  -374.0980  -286.7852 H6            1 RES     
   13749 H6         466.5539  -373.6110  -287.8120 H6            1 RES     
   13750 H6         466.1611  -376.0779  -287.6965 H6            1 RES     
   13751 H6         464.5152  -375.8610  -288.3945 H6            1 RES     
   13752 H6         465.5891  -374.9649  -290.5294 H6            1 RES     
   13753 H6         467.2009  -375.1028  -289.7373 H6            1 RES     
   13754 H6         466.9307  -377.5802  -289.5806 H6            1 RES     
   13755 H6         466.8663  -376.9572  -291.2681 H6            1 RES     
   13756 H6         464.4128  -377.7874  -289.5872 H6            1 RES     
   13757 H6         464.3753  -377.1043  -291.2647 H6            1 RES     
   13758 H6         465.1605  -378.6959  -290.9417 H6            1 RES     
   13759 H6         460.8137  -372.8016  -284.6356 H6            1 RES     
   13760 H6         459.1710  -372.9800  -284.7313 H6            1 RES     
   13761 H6         460.4054  -371.0739  -283.3080 H6            1 RES     
   13762 H6         460.3528  -370.1071  -284.8141 H6            1 RES     
   13763 H6         457.9945  -371.4437  -283.2324 H6            1 RES     
   13764 H6         457.7912  -370.4760  -284.7089 H6            1 RES     
   13765 H6         458.6029  -368.4501  -283.7111 H6            1 RES     
   13766 H6         457.1130  -369.1887  -283.0112 H6            1 RES     
   13767 H6         458.2564  -370.0571  -281.1022 H6            1 RES     
   13768 H6         459.8134  -369.2913  -281.6195 H6            1 RES     
   13769 H6         458.7324  -367.0494  -281.6585 H6            1 RES     
   13770 H6         457.1298  -367.7467  -281.2437 H6            1 RES     
   13771 H6         458.2061  -366.6329  -279.3381 H6            1 RES     
   13772 H6         459.5897  -367.7891  -279.3959 H6            1 RES     
   13773 H6         457.9603  -369.6782  -278.9075 H6            1 RES     
   13774 H6         457.8684  -368.3893  -277.6593 H6            1 RES     
   13775 H6         456.5983  -368.4879  -278.9337 H6            1 RES     
   13776 C0         454.2217  -379.9984  -297.0779 C0            1 RES     
   13777 C1         454.2242  -378.5754  -296.4771 C1            1 RES     
   13778 C1         453.9087  -377.6256  -297.3956 C1            1 RES     
   13779 S2         453.9923  -376.0635  -296.7996 S2            1 RES     
   13780 C1         454.5052  -376.6032  -295.2710 C1            1 RES     
   13781 C1         454.6057  -377.9987  -295.2542 C1            1 RES     
   13782 C1         453.7052  -378.2506  -298.6449 C1            1 RES     
   13783 C1         453.9576  -379.5821  -298.5257 C1            1 RES     
   13784 C1         453.9163  -380.2394  -299.7495 C1            1 RES     
   13785 C1         453.5859  -379.3441  -300.7808 C1            1 RES     
   13786 S2         453.3651  -377.7643  -300.1988 S2            1 RES     
   13787 H3         454.9878  -378.5245  -294.3999 H3            1 RES     
   13788 H3         454.1170  -381.2951  -299.8869 H3            1 RES     
   13789 N4         452.3404  -379.8513  -304.2797 N4            1 RES     
   13790 C1         452.3484  -379.6054  -302.9367 C1            1 RES     
   13791 C1         453.5490  -379.6485  -302.2069 C1            1 RES     
   13792 C1         454.7298  -379.9262  -302.8978 C1            1 RES     
   13793 N4         455.9607  -379.9411  -302.3249 N4            1 RES     
   13794 S2         456.9443  -380.2550  -303.6156 S2            1 RES     
   13795 N4         455.8959  -380.3815  -304.8897 N4            1 RES     
   13796 C1         454.6975  -380.1585  -304.2957 C1            1 RES     
   13797 C1         453.4805  -380.1309  -304.9715 C1            1 RES     
   13798 H5         451.4129  -379.3836  -302.4304 H5            1 RES     
   13799 C0         453.1124  -381.0204  -296.6448 C0            1 RES     
   13800 C0         451.5743  -381.0598  -296.9837 C0            1 RES     
   13801 C0         451.0012  -382.2550  -296.1438 C0            1 RES     
   13802 C0         449.5147  -382.5827  -296.3309 C0            1 RES     
   13803 C0         449.0500  -383.7417  -295.4178 C0            1 RES     
   13804 C0         449.7298  -385.1065  -295.6646 C0            1 RES     
   13805 C0         449.6378  -385.6242  -297.1109 C0            1 RES     
   13806 C0         448.1889  -385.7597  -297.6118 C0            1 RES     
   13807 C0         448.1013  -386.2227  -299.0731 C0            1 RES     
   13808 C0         448.5971  -387.6635  -299.2826 C0            1 RES     
   13809 C0         448.3984  -388.1557  -300.7250 C0            1 RES     
   13810 C0         449.2470  -387.3940  -301.7438 C0            1 RES     
   13811 C0         450.7142  -379.7638  -296.8230 C0            1 RES     
   13812 C0         450.5154  -379.1520  -295.4021 C0            1 RES     
   13813 C0         451.0569  -377.7193  -295.3989 C0            1 RES     
   13814 C0         451.2700  -377.0367  -294.0507 C0            1 RES     
   13815 C0         450.0320  -376.4574  -293.3820 C0            1 RES     
   13816 C0         450.4801  -375.7799  -292.0700 C0            1 RES     
   13817 C0         449.3811  -374.9796  -291.3673 C0            1 RES     
   13818 C0         448.9766  -373.7325  -292.1563 C0            1 RES     
   13819 H6         453.1428  -381.0613  -295.5860 H6            1 RES     
   13820 H6         453.4800  -381.9997  -297.0262 H6            1 RES     
   13821 H6         451.4937  -381.3171  -298.0634 H6            1 RES     
   13822 H6         451.1578  -382.0510  -295.0620 H6            1 RES     
   13823 H6         451.5881  -383.1623  -296.4022 H6            1 RES     
   13824 H6         449.3066  -382.8153  -297.3951 H6            1 RES     
   13825 H6         448.9074  -381.7013  -296.0418 H6            1 RES     
   13826 H6         447.9537  -383.8600  -295.5416 H6            1 RES     
   13827 H6         449.2181  -383.4610  -294.3544 H6            1 RES     
   13828 H6         449.2630  -385.8523  -294.9831 H6            1 RES     
   13829 H6         450.8037  -385.0457  -295.3865 H6            1 RES     
   13830 H6         450.1975  -384.9385  -297.7814 H6            1 RES     
   13831 H6         450.1421  -386.6123  -297.1400 H6            1 RES     
   13832 H6         447.7022  -384.7638  -297.5736 H6            1 RES     
   13833 H6         447.6174  -386.4534  -296.9570 H6            1 RES     
   13834 H6         447.0323  -386.1774  -299.3756 H6            1 RES     
   13835 H6         448.6720  -385.5099  -299.7046 H6            1 RES     
   13836 H6         449.6707  -387.7570  -299.0177 H6            1 RES     
   13837 H6         448.0112  -388.3310  -298.6138 H6            1 RES     
   13838 H6         447.3247  -388.0820  -301.0041 H6            1 RES     
   13839 H6         448.6935  -389.2264  -300.7683 H6            1 RES     
   13840 H6         448.9627  -386.3233  -301.7872 H6            1 RES     
   13841 H6         450.3239  -387.4793  -301.4853 H6            1 RES     
   13842 H6         449.0884  -387.8292  -302.7527 H6            1 RES     
   13843 H6         449.7003  -379.9824  -297.2213 H6            1 RES     
   13844 H6         451.0941  -379.0040  -297.5392 H6            1 RES     
   13845 H6         449.4353  -379.1157  -295.1353 H6            1 RES     
   13846 H6         451.0378  -379.7705  -294.6443 H6            1 RES     
   13847 H6         450.5113  -377.0608  -296.1072 H6            1 RES     
   13848 H6         452.0531  -377.8333  -295.7701 H6            1 RES     
   13849 H6         451.7934  -377.7236  -293.3812 H6            1 RES     
   13850 H6         451.9541  -376.1781  -294.2392 H6            1 RES     
   13851 H6         449.5978  -375.7137  -294.0833 H6            1 RES     
   13852 H6         449.2781  -377.2450  -293.1709 H6            1 RES     
   13853 H6         450.8429  -376.5748  -291.3795 H6            1 RES     
   13854 H6         451.3313  -375.0872  -292.2604 H6            1 RES     
   13855 H6         449.7858  -374.6363  -290.3898 H6            1 RES     
   13856 H6         448.4979  -375.6244  -291.1752 H6            1 RES     
   13857 H6         448.5250  -373.9977  -293.1325 H6            1 RES     
   13858 H6         448.2311  -373.1524  -291.5754 H6            1 RES     
   13859 H6         449.8652  -373.0855  -292.3310 H6            1 RES     
   13860 C0         455.6780  -380.5552  -296.8233 C0            1 RES     
   13861 C0         456.0570  -381.7524  -295.8388 C0            1 RES     
   13862 C0         457.5761  -381.5814  -295.4989 C0            1 RES     
   13863 C0         458.2350  -382.7728  -294.7746 C0            1 RES     
   13864 C0         459.7206  -382.5519  -294.4395 C0            1 RES     
   13865 C0         460.6476  -382.3032  -295.6427 C0            1 RES     
   13866 C0         460.5830  -383.3693  -296.7490 C0            1 RES     
   13867 C0         460.9018  -384.7896  -296.2500 C0            1 RES     
   13868 C0         460.8278  -385.8438  -297.3665 C0            1 RES     
   13869 C0         461.9221  -385.6634  -298.4338 C0            1 RES     
   13870 C0         461.9291  -386.7869  -299.4821 C0            1 RES     
   13871 C0         460.6690  -386.8125  -300.3474 C0            1 RES     
   13872 C0         455.2278  -382.1818  -294.5562 C0            1 RES     
   13873 C0         455.1292  -381.2740  -293.2976 C0            1 RES     
   13874 C0         453.7460  -380.6131  -293.1585 C0            1 RES     
   13875 C0         453.5636  -379.6537  -291.9941 C0            1 RES     
   13876 C0         453.4640  -380.2658  -290.6040 C0            1 RES     
   13877 C0         453.1103  -379.1224  -289.6311 C0            1 RES     
   13878 C0         452.8166  -379.5750  -288.1997 C0            1 RES     
   13879 C0         451.5291  -380.3946  -288.1023 C0            1 RES     
   13880 H6         456.3423  -379.6878  -296.6013 H6            1 RES     
   13881 H6         456.0857  -380.8743  -297.8092 H6            1 RES     
   13882 H6         455.9618  -382.6592  -296.4796 H6            1 RES     
   13883 H6         457.7082  -380.6714  -294.8748 H6            1 RES     
   13884 H6         458.1214  -381.4228  -296.4541 H6            1 RES     
   13885 H6         458.1120  -383.6894  -295.3887 H6            1 RES     
   13886 H6         457.7524  -382.9406  -293.7924 H6            1 RES     
   13887 H6         460.0792  -383.4472  -293.8879 H6            1 RES     
   13888 H6         459.8144  -381.6883  -293.7450 H6            1 RES     
   13889 H6         461.6899  -382.2360  -295.2609 H6            1 RES     
   13890 H6         460.4023  -381.3196  -296.0972 H6            1 RES     
   13891 H6         459.5735  -383.3626  -297.2128 H6            1 RES     
   13892 H6         461.3145  -383.0665  -297.5257 H6            1 RES     
   13893 H6         460.1497  -385.0792  -295.4867 H6            1 RES     
   13894 H6         461.9065  -384.8149  -295.7754 H6            1 RES     
   13895 H6         460.9640  -386.8419  -296.8961 H6            1 RES     
   13896 H6         459.8166  -385.8102  -297.8247 H6            1 RES     
   13897 H6         461.8115  -384.6914  -298.9572 H6            1 RES     
   13898 H6         462.9090  -385.6749  -297.9216 H6            1 RES     
   13899 H6         462.0575  -387.7702  -298.9798 H6            1 RES     
   13900 H6         462.8001  -386.6250  -300.1531 H6            1 RES     
   13901 H6         459.7664  -387.0244  -299.7396 H6            1 RES     
   13902 H6         460.5425  -385.8406  -300.8703 H6            1 RES     
   13903 H6         460.7640  -387.6148  -301.1090 H6            1 RES     
   13904 H6         455.7151  -383.1109  -294.2078 H6            1 RES     
   13905 H6         454.2466  -382.6302  -294.8010 H6            1 RES     
   13906 H6         455.2125  -381.9280  -292.4017 H6            1 RES     
   13907 H6         455.9706  -380.5527  -293.2617 H6            1 RES     
   13908 H6         452.9486  -381.3903  -293.1370 H6            1 RES     
   13909 H6         453.5608  -379.9693  -294.0111 H6            1 RES     
   13910 H6         454.3428  -378.8616  -292.0311 H6            1 RES     
   13911 H6         452.5745  -379.1958  -292.1596 H6            1 RES     
   13912 H6         452.6537  -381.0249  -290.6253 H6            1 RES     
   13913 H6         454.4164  -380.7550  -290.3113 H6            1 RES     
   13914 H6         453.9633  -378.4088  -289.6138 H6            1 RES     
   13915 H6         452.2155  -378.5674  -289.9962 H6            1 RES     
   13916 H6         452.6753  -378.6585  -287.5857 H6            1 RES     
   13917 H6         453.6770  -380.1442  -287.7951 H6            1 RES     
   13918 H6         451.6122  -381.3480  -288.6609 H6            1 RES     
   13919 H6         451.3260  -380.6324  -287.0380 H6            1 RES     
   13920 H6         450.6704  -379.8117  -288.5021 H6            1 RES     
   13921 C0         453.1179  -382.6108  -309.7982 C0            1 RES     
   13922 C1         453.1996  -381.5902  -308.6417 C1            1 RES     
   13923 C1         453.4888  -380.3366  -309.0777 C1            1 RES     
   13924 S2         453.6756  -379.2239  -307.8410 S2            1 RES     
   13925 C1         453.4142  -380.4065  -306.6477 C1            1 RES     
   13926 C1         453.1881  -381.6546  -307.2384 C1            1 RES     
   13927 C1         453.6589  -380.3700  -310.4787 C1            1 RES     
   13928 C1         453.5424  -381.6539  -310.9132 C1            1 RES     
   13929 C1         453.8401  -381.7834  -312.2645 C1            1 RES     
   13930 C1         454.1481  -380.5324  -312.8252 C1            1 RES     
   13931 S2         454.0727  -379.2880  -311.6723 S2            1 RES     
   13932 H3         453.0775  -382.5442  -306.6479 H3            1 RES     
   13933 H3         453.8393  -382.7215  -312.8066 H3            1 RES     
   13934 N4         454.2968  -379.3044  -316.3636 N4            1 RES     
   13935 C1         453.8314  -379.5594  -315.1056 C1            1 RES     
   13936 C1         454.6073  -380.2887  -314.1881 C1            1 RES     
   13937 C1         455.8710  -380.7224  -314.5928 C1            1 RES     
   13938 N4         456.7418  -381.3843  -313.7883 N4            1 RES     
   13939 S2         458.0567  -381.5695  -314.7725 S2            1 RES     
   13940 N4         457.5928  -380.8541  -316.1907 N4            1 RES     
   13941 C1         456.3393  -380.4279  -315.8979 C1            1 RES     
   13942 C1         455.5241  -379.7245  -316.7808 C1            1 RES     
   13943 H5         452.8468  -379.2000  -314.8191 H5            1 RES     
   13944 C0         451.7312  -383.2370  -310.1825 C0            1 RES     
   13945 C0         450.4824  -382.5904  -310.8926 C0            1 RES     
   13946 C0         449.3764  -383.7033  -310.8679 C0            1 RES     
   13947 C0         448.0501  -383.3771  -311.5657 C0            1 RES     
   13948 C0         447.0203  -384.5238  -311.4336 C0            1 RES     
   13949 C0         447.4216  -385.8665  -312.0831 C0            1 RES     
   13950 C0         447.7922  -385.7799  -313.5741 C0            1 RES     
   13951 C0         446.6653  -385.1929  -314.4425 C0            1 RES     
   13952 C0         447.0578  -385.0555  -315.9205 C0            1 RES     
   13953 C0         447.2635  -386.4094  -316.6208 C0            1 RES     
   13954 C0         447.5430  -386.2631  -318.1251 C0            1 RES     
   13955 C0         448.8691  -385.5637  -318.4262 C0            1 RES     
   13956 C0         449.9386  -381.2114  -310.3950 C0            1 RES     
   13957 C0         449.3391  -381.1013  -308.9593 C0            1 RES     
   13958 C0         450.1387  -380.0631  -308.1663 C0            1 RES     
   13959 C0         449.9512  -380.0177  -306.6525 C0            1 RES     
   13960 C0         448.7119  -379.2949  -306.1453 C0            1 RES     
   13961 C0         448.7473  -379.3275  -304.6029 C0            1 RES     
   13962 C0         447.6678  -378.4764  -303.9302 C0            1 RES     
   13963 C0         447.8925  -376.9782  -304.1446 C0            1 RES     
   13964 H6         451.3338  -383.6497  -309.2905 H6            1 RES     
   13965 H6         451.9920  -384.0858  -310.8542 H6            1 RES     
   13966 H6         450.7770  -382.4099  -311.9505 H6            1 RES     
   13967 H6         449.1369  -383.9585  -309.8124 H6            1 RES     
   13968 H6         449.8007  -384.6128  -311.3446 H6            1 RES     
   13969 H6         448.2304  -383.1339  -312.6325 H6            1 RES     
   13970 H6         447.5898  -382.4932  -311.0797 H6            1 RES     
   13971 H6         446.0639  -384.1815  -311.8802 H6            1 RES     
   13972 H6         446.8153  -384.7106  -310.3561 H6            1 RES     
   13973 H6         446.5722  -386.5754  -311.9621 H6            1 RES     
   13974 H6         448.2846  -386.3036  -311.5367 H6            1 RES     
   13975 H6         448.7069  -385.1608  -313.6886 H6            1 RES     
   13976 H6         448.0349  -386.8082  -313.9137 H6            1 RES     
   13977 H6         446.4364  -384.1676  -314.0871 H6            1 RES     
   13978 H6         445.7445  -385.8093  -314.3481 H6            1 RES     
   13979 H6         446.2322  -384.5203  -316.4383 H6            1 RES     
   13980 H6         447.9731  -384.4306  -315.9866 H6            1 RES     
   13981 H6         448.0972  -386.9751  -316.1557 H6            1 RES     
   13982 H6         446.3301  -387.0026  -316.5065 H6            1 RES     
   13983 H6         446.7103  -385.7095  -318.6113 H6            1 RES     
   13984 H6         447.5862  -387.2811  -318.5689 H6            1 RES     
   13985 H6         448.8695  -384.5196  -318.0534 H6            1 RES     
   13986 H6         449.7102  -386.1213  -317.9619 H6            1 RES     
   13987 H6         449.0270  -385.5327  -319.5246 H6            1 RES     
   13988 H6         449.1414  -380.8910  -311.0994 H6            1 RES     
   13989 H6         450.7270  -380.4466  -310.5620 H6            1 RES     
   13990 H6         448.2782  -380.7665  -308.9989 H6            1 RES     
   13991 H6         449.3712  -382.0890  -308.4562 H6            1 RES     
   13992 H6         450.0755  -379.0495  -308.6153 H6            1 RES     
   13993 H6         451.1485  -380.3982  -308.2730 H6            1 RES     
   13994 H6         450.0035  -381.0343  -306.2553 H6            1 RES     
   13995 H6         450.8260  -379.4615  -306.2453 H6            1 RES     
   13996 H6         448.7643  -378.2509  -306.5204 H6            1 RES     
   13997 H6         447.7816  -379.7721  -306.5195 H6            1 RES     
   13998 H6         448.6241  -380.3858  -304.2788 H6            1 RES     
   13999 H6         449.7354  -378.9750  -304.2285 H6            1 RES     
   14000 H6         447.7216  -378.6661  -302.8356 H6            1 RES     
   14001 H6         446.6610  -378.7763  -304.2899 H6            1 RES     
   14002 H6         447.8137  -376.7043  -305.2151 H6            1 RES     
   14003 H6         447.1276  -376.4048  -303.5827 H6            1 RES     
   14004 H6         448.8977  -376.6844  -303.7676 H6            1 RES     
   14005 C0         454.1947  -383.7134  -309.4511 C0            1 RES     
   14006 C0         453.8814  -385.2268  -309.0541 C0            1 RES     
   14007 C0         455.1421  -385.7532  -308.2886 C0            1 RES     
   14008 C0         455.1822  -387.2741  -308.0373 C0            1 RES     
   14009 C0         456.4259  -387.7435  -307.2620 C0            1 RES     
   14010 C0         457.7807  -387.4523  -307.9318 C0            1 RES     
   14011 C0         457.9208  -387.9670  -309.3740 C0            1 RES     
   14012 C0         457.6949  -389.4833  -309.5077 C0            1 RES     
   14013 C0         457.8335  -389.9808  -310.9556 C0            1 RES     
   14014 C0         459.2691  -389.8569  -311.4966 C0            1 RES     
   14015 C0         459.4377  -390.4674  -312.8966 C0            1 RES     
   14016 C0         458.6467  -389.7288  -313.9764 C0            1 RES     
   14017 C0         452.5428  -385.7375  -308.3727 C0            1 RES     
   14018 C0         452.1621  -385.3523  -306.9151 C0            1 RES     
   14019 C0         451.0192  -384.3228  -306.8605 C0            1 RES     
   14020 C0         450.6120  -383.8297  -305.4818 C0            1 RES     
   14021 C0         449.8420  -384.8027  -304.6000 C0            1 RES     
   14022 C0         449.3978  -384.0217  -303.3463 C0            1 RES     
   14023 C0         448.4737  -384.8000  -302.4080 C0            1 RES     
   14024 C0         447.1045  -385.0700  -303.0336 C0            1 RES     
   14025 H6         454.8928  -383.2842  -308.6952 H6            1 RES     
   14026 H6         454.8748  -383.7976  -310.3288 H6            1 RES     
   14027 H6         453.8470  -385.7537  -310.0356 H6            1 RES     
   14028 H6         455.2168  -385.2312  -307.3102 H6            1 RES     
   14029 H6         456.0388  -385.4857  -308.8878 H6            1 RES     
   14030 H6         455.1102  -387.8086  -309.0077 H6            1 RES     
   14031 H6         454.3288  -387.5820  -307.4027 H6            1 RES     
   14032 H6         456.3312  -388.8390  -307.1028 H6            1 RES     
   14033 H6         456.4284  -387.2720  -306.2547 H6            1 RES     
   14034 H6         458.5762  -387.9081  -307.3026 H6            1 RES     
   14035 H6         457.9579  -386.3556  -307.9386 H6            1 RES     
   14036 H6         457.2031  -387.4310  -310.0312 H6            1 RES     
   14037 H6         458.9457  -387.7049  -309.7071 H6            1 RES     
   14038 H6         456.6599  -389.7218  -309.1854 H6            1 RES     
   14039 H6         458.4001  -390.0373  -308.8510 H6            1 RES     
   14040 H6         457.5493  -391.0556  -310.9705 H6            1 RES     
   14041 H6         457.1179  -389.4229  -311.5963 H6            1 RES     
   14042 H6         459.5911  -388.7957  -311.5321 H6            1 RES     
   14043 H6         459.9466  -390.4054  -310.8064 H6            1 RES     
   14044 H6         459.1374  -391.5376  -312.8796 H6            1 RES     
   14045 H6         460.5145  -390.4147  -313.1668 H6            1 RES     
   14046 H6         457.5554  -389.7913  -313.7910 H6            1 RES     
   14047 H6         458.9542  -388.6621  -314.0155 H6            1 RES     
   14048 H6         458.8526  -390.1933  -314.9636 H6            1 RES     
   14049 H6         452.6352  -386.8391  -308.3683 H6            1 RES     
   14050 H6         451.6636  -385.6807  -309.0416 H6            1 RES     
   14051 H6         451.7400  -386.2575  -306.4255 H6            1 RES     
   14052 H6         453.0590  -385.0499  -306.3375 H6            1 RES     
   14053 H6         450.1266  -384.7094  -307.4029 H6            1 RES     
   14054 H6         451.3309  -383.4040  -307.3445 H6            1 RES     
   14055 H6         451.4976  -383.4182  -304.9505 H6            1 RES     
   14056 H6         449.8953  -383.0146  -305.6751 H6            1 RES     
   14057 H6         448.9588  -385.1542  -305.1742 H6            1 RES     
   14058 H6         450.4690  -385.6753  -304.3220 H6            1 RES     
   14059 H6         450.3107  -383.7238  -302.7849 H6            1 RES     
   14060 H6         448.8652  -383.0883  -303.6411 H6            1 RES     
   14061 H6         448.3097  -384.1688  -301.5071 H6            1 RES     
   14062 H6         448.9569  -385.7468  -302.0950 H6            1 RES     
   14063 H6         447.1867  -385.7309  -303.9192 H6            1 RES     
   14064 H6         446.4529  -385.5690  -302.2873 H6            1 RES     
   14065 H6         446.6239  -384.1137  -303.3360 H6            1 RES     
   14066 C0         456.5448  -380.0650  -322.1118 C0            1 RES     
   14067 C1         456.3901  -379.6132  -320.6429 C1            1 RES     
   14068 C1         457.0971  -378.4855  -320.3715 C1            1 RES     
   14069 S2         457.0251  -378.0203  -318.7650 S2            1 RES     
   14070 C1         456.0616  -379.3587  -318.3515 C1            1 RES     
   14071 C1         455.8150  -380.1498  -319.4789 C1            1 RES     
   14072 C1         457.7912  -378.0922  -321.5361 C1            1 RES     
   14073 C1         457.5733  -379.0084  -322.5179 C1            1 RES     
   14074 C1         458.3406  -378.7621  -323.6501 C1            1 RES     
   14075 C1         459.1128  -377.6004  -323.4813 C1            1 RES     
   14076 S2         458.8687  -376.8965  -321.9554 S2            1 RES     
   14077 H3         455.2874  -381.0820  -319.4071 H3            1 RES     
   14078 H3         458.3447  -379.3847  -324.5368 H3            1 RES     
   14079 N4         460.9059  -375.3707  -325.9027 N4            1 RES     
   14080 C1         459.9404  -375.8554  -325.0678 C1            1 RES     
   14081 C1         460.1114  -377.0869  -324.4122 C1            1 RES     
   14082 C1         461.3023  -377.7846  -324.6218 C1            1 RES     
   14083 N4         461.6174  -378.9535  -324.0071 N4            1 RES     
   14084 S2         463.1363  -379.2550  -324.5848 S2            1 RES     
   14085 N4         463.4371  -377.9767  -325.5916 N4            1 RES     
   14086 C1         462.2976  -377.2505  -325.4781 C1            1 RES     
   14087 C1         462.0721  -376.0389  -326.1263 C1            1 RES     
   14088 H5         459.0286  -375.2833  -324.9194 H5            1 RES     
   14089 C0         455.3189  -379.9651  -323.0864 C0            1 RES     
   14090 C0         454.6260  -378.7035  -323.7269 C0            1 RES     
   14091 C0         453.3823  -379.2682  -324.4994 C0            1 RES     
   14092 C0         452.5444  -378.2593  -325.2945 C0            1 RES     
   14093 C0         451.3192  -378.9182  -325.9709 C0            1 RES     
   14094 C0         451.6348  -380.0006  -327.0267 C0            1 RES     
   14095 C0         452.5699  -379.5460  -328.1611 C0            1 RES     
   14096 C0         452.0347  -378.3258  -328.9314 C0            1 RES     
   14097 C0         452.9955  -377.8399  -330.0260 C0            1 RES     
   14098 C0         453.1539  -378.8427  -331.1815 C0            1 RES     
   14099 C0         454.0261  -378.2986  -332.3241 C0            1 RES     
   14100 C0         455.4830  -378.0761  -331.9164 C0            1 RES     
   14101 C0         454.2508  -377.4850  -322.8215 C0            1 RES     
   14102 C0         453.1767  -377.6667  -321.7052 C0            1 RES     
   14103 C0         453.8094  -377.3370  -320.3498 C0            1 RES     
   14104 C0         453.0581  -377.7525  -319.0882 C0            1 RES     
   14105 C0         451.9128  -376.8495  -318.6540 C0            1 RES     
   14106 C0         451.3320  -377.4239  -317.3448 C0            1 RES     
   14107 C0         450.2929  -376.5258  -316.6696 C0            1 RES     
   14108 C0         450.9096  -375.2397  -316.1155 C0            1 RES     
   14109 H6         454.5228  -380.4844  -322.6171 H6            1 RES     
   14110 H6         455.6273  -380.5616  -323.9746 H6            1 RES     
   14111 H6         455.3441  -378.2897  -324.4696 H6            1 RES     
   14112 H6         452.6978  -379.7659  -323.7780 H6            1 RES     
   14113 H6         453.7467  -380.0445  -325.2059 H6            1 RES     
   14114 H6         453.1779  -377.7464  -326.0465 H6            1 RES     
   14115 H6         452.1387  -377.4951  -324.6012 H6            1 RES     
   14116 H6         450.7165  -378.1177  -326.4476 H6            1 RES     
   14117 H6         450.6720  -379.3770  -325.1908 H6            1 RES     
   14118 H6         450.6720  -380.3436  -327.4670 H6            1 RES     
   14119 H6         452.0940  -380.8832  -326.5323 H6            1 RES     
   14120 H6         453.5685  -379.3067  -327.7386 H6            1 RES     
   14121 H6         452.6920  -380.4058  -328.8521 H6            1 RES     
   14122 H6         451.9181  -377.4791  -328.2246 H6            1 RES     
   14123 H6         451.0390  -378.5535  -329.3714 H6            1 RES     
   14124 H6         452.5802  -376.8960  -330.4418 H6            1 RES     
   14125 H6         453.9769  -377.6125  -329.5594 H6            1 RES     
   14126 H6         453.5903  -379.7976  -330.8222 H6            1 RES     
   14127 H6         452.1444  -379.0527  -331.5973 H6            1 RES     
   14128 H6         453.5962  -377.3472  -332.7065 H6            1 RES     
   14129 H6         454.0132  -379.0404  -333.1516 H6            1 RES     
   14130 H6         455.5684  -377.3032  -331.1262 H6            1 RES     
   14131 H6         455.9281  -379.0264  -331.5523 H6            1 RES     
   14132 H6         456.0618  -377.7274  -332.7972 H6            1 RES     
   14133 H6         453.8865  -376.6726  -323.4861 H6            1 RES     
   14134 H6         455.1897  -377.0554  -322.4110 H6            1 RES     
   14135 H6         452.3193  -376.9752  -321.8658 H6            1 RES     
   14136 H6         452.7891  -378.7056  -321.7148 H6            1 RES     
   14137 H6         454.1536  -376.2830  -320.2905 H6            1 RES     
   14138 H6         454.6784  -377.9596  -320.3275 H6            1 RES     
   14139 H6         452.7236  -378.7872  -319.1958 H6            1 RES     
   14140 H6         453.8025  -377.7333  -318.2599 H6            1 RES     
   14141 H6         452.3381  -375.8371  -318.4876 H6            1 RES     
   14142 H6         451.1234  -376.7915  -319.4329 H6            1 RES     
   14143 H6         450.8604  -378.4050  -317.5796 H6            1 RES     
   14144 H6         452.1452  -377.6108  -316.6070 H6            1 RES     
   14145 H6         449.8694  -377.0879  -315.8083 H6            1 RES     
   14146 H6         449.4688  -376.2917  -317.3760 H6            1 RES     
   14147 H6         451.3199  -374.6041  -316.9248 H6            1 RES     
   14148 H6         450.1333  -374.6584  -315.5779 H6            1 RES     
   14149 H6         451.7241  -375.4846  -315.3977 H6            1 RES     
   14150 C0         457.1256  -381.5320  -322.0323 C0            1 RES     
   14151 C0         456.3549  -382.8619  -322.4608 C0            1 RES     
   14152 C0         457.0633  -384.0431  -321.7157 C0            1 RES     
   14153 C0         456.6636  -385.4586  -322.1791 C0            1 RES     
   14154 C0         457.3656  -386.5878  -321.4044 C0            1 RES     
   14155 C0         458.9024  -386.6009  -321.4881 C0            1 RES     
   14156 C0         459.4794  -386.5982  -322.9134 C0            1 RES     
   14157 C0         458.9942  -387.7791  -323.7726 C0            1 RES     
   14158 C0         459.5758  -387.7590  -325.1955 C0            1 RES     
   14159 C0         461.0972  -387.9908  -325.2239 C0            1 RES     
   14160 C0         461.6618  -388.0960  -326.6492 C0            1 RES     
   14161 C0         461.5429  -386.7948  -327.4428 C0            1 RES     
   14162 C0         454.7794  -383.0482  -322.4622 C0            1 RES     
   14163 C0         453.9529  -383.0800  -321.1455 C0            1 RES     
   14164 C0         453.1392  -381.7908  -320.9330 C0            1 RES     
   14165 C0         452.3440  -381.6924  -319.6416 C0            1 RES     
   14166 C0         451.0951  -382.5557  -319.5322 C0            1 RES     
   14167 C0         450.3797  -382.1518  -318.2268 C0            1 RES     
   14168 C0         449.0141  -382.8100  -318.0216 C0            1 RES     
   14169 C0         447.9774  -382.3252  -319.0362 C0            1 RES     
   14170 H6         457.5473  -381.6784  -321.0106 H6            1 RES     
   14171 H6         458.0585  -381.5504  -322.6400 H6            1 RES     
   14172 H6         456.5925  -382.9651  -323.5447 H6            1 RES     
   14173 H6         456.8617  -383.9579  -320.6260 H6            1 RES     
   14174 H6         458.1583  -383.9334  -321.8702 H6            1 RES     
   14175 H6         456.8616  -385.5584  -323.2669 H6            1 RES     
   14176 H6         455.5844  -385.6313  -322.0013 H6            1 RES     
   14177 H6         456.9759  -387.5544  -321.7891 H6            1 RES     
   14178 H6         457.0771  -386.5296  -320.3318 H6            1 RES     
   14179 H6         459.2647  -387.5037  -320.9493 H6            1 RES     
   14180 H6         459.3062  -385.7161  -320.9512 H6            1 RES     
   14181 H6         459.2152  -385.6450  -323.4194 H6            1 RES     
   14182 H6         460.5831  -386.6321  -322.8099 H6            1 RES     
   14183 H6         457.8909  -387.7174  -323.8774 H6            1 RES     
   14184 H6         459.2433  -388.7431  -323.2785 H6            1 RES     
   14185 H6         459.0898  -388.5782  -325.7690 H6            1 RES     
   14186 H6         459.3120  -386.7934  -325.6769 H6            1 RES     
   14187 H6         461.6336  -387.1799  -324.6896 H6            1 RES     
   14188 H6         461.3096  -388.9516  -324.7060 H6            1 RES     
   14189 H6         461.1499  -388.9163  -327.1977 H6            1 RES     
   14190 H6         462.7407  -388.3515  -326.5731 H6            1 RES     
   14191 H6         460.4821  -386.5131  -327.5994 H6            1 RES     
   14192 H6         462.0691  -385.9724  -326.9129 H6            1 RES     
   14193 H6         462.0111  -386.9302  -328.4404 H6            1 RES     
   14194 H6         454.6161  -384.0352  -322.9326 H6            1 RES     
   14195 H6         454.2695  -382.4458  -323.2373 H6            1 RES     
   14196 H6         453.1834  -383.8766  -321.2484 H6            1 RES     
   14197 H6         454.5939  -383.3470  -320.2810 H6            1 RES     
   14198 H6         452.4696  -381.6102  -321.8044 H6            1 RES     
   14199 H6         453.8110  -380.9439  -320.8480 H6            1 RES     
   14200 H6         453.0173  -381.8450  -318.7702 H6            1 RES     
   14201 H6         451.9607  -380.6588  -319.6256 H6            1 RES     
   14202 H6         450.4541  -382.3372  -320.4123 H6            1 RES     
   14203 H6         451.3524  -383.6353  -319.5255 H6            1 RES     
   14204 H6         451.0403  -382.4229  -317.3740 H6            1 RES     
   14205 H6         450.2267  -381.0483  -318.1956 H6            1 RES     
   14206 H6         448.6540  -382.5161  -317.0112 H6            1 RES     
   14207 H6         449.1128  -383.9131  -318.0564 H6            1 RES     
   14208 H6         448.2518  -382.6201  -320.0685 H6            1 RES     
   14209 H6         446.9923  -382.7757  -318.7969 H6            1 RES     
   14210 H6         447.8789  -381.2185  -318.9874 H6            1 RES     
   14211 C0         464.9997  -374.8638  -330.5565 C0            1 RES     
   14212 C1         464.3853  -374.9247  -329.1406 C1            1 RES     
   14213 C1         465.1598  -374.3034  -328.2136 C1            1 RES     
   14214 S2         464.5683  -374.4307  -326.6527 S2            1 RES     
   14215 C1         463.2493  -375.3768  -327.1586 C1            1 RES     
   14216 C1         463.2963  -375.5801  -328.5422 C1            1 RES     
   14217 C1         466.3236  -373.8154  -328.8462 C1            1 RES     
   14218 C1         466.3113  -374.1874  -330.1547 C1            1 RES     
   14219 C1         467.4951  -373.8643  -330.8070 C1            1 RES     
   14220 C1         468.3756  -373.2021  -329.9350 C1            1 RES     
   14221 S2         467.7149  -373.0321  -328.3799 S2            1 RES     
   14222 H3         462.5906  -376.2168  -329.0410 H3            1 RES     
   14223 H3         467.7087  -374.0971  -331.8434 H3            1 RES     
   14224 N4         471.4204  -371.0956  -330.5196 N4            1 RES     
   14225 C1         470.1235  -371.4493  -330.2806 C1            1 RES     
   14226 C1         469.7461  -372.8025  -330.2342 C1            1 RES     
   14227 C1         470.7369  -373.7690  -330.4160 C1            1 RES     
   14228 N4         470.5180  -375.1067  -330.3383 N4            1 RES     
   14229 S2         472.0339  -375.7239  -330.5685 S2            1 RES     
   14230 N4         472.9807  -374.3817  -330.7695 N4            1 RES     
   14231 C1         472.0798  -373.3762  -330.6431 C1            1 RES     
   14232 C1         472.4013  -372.0229  -330.7066 C1            1 RES     
   14233 H5         469.3780  -370.6724  -330.1345 H5            1 RES     
   14234 C0         464.3099  -373.9914  -331.6636 C0            1 RES     
   14235 C0         464.2221  -372.4263  -331.8204 C0            1 RES     
   14236 C0         463.2899  -372.1914  -333.0607 C0            1 RES     
   14237 C0         463.0774  -370.7379  -333.5017 C0            1 RES     
   14238 C0         462.1030  -370.6244  -334.6978 C0            1 RES     
   14239 C0         462.5592  -371.3100  -336.0046 C0            1 RES     
   14240 C0         463.9398  -370.8676  -336.5205 C0            1 RES     
   14241 C0         464.0346  -369.3512  -336.7655 C0            1 RES     
   14242 C0         465.4295  -368.9050  -337.2266 C0            1 RES     
   14243 C0         465.8021  -369.4297  -338.6235 C0            1 RES     
   14244 C0         467.1496  -368.8842  -339.1225 C0            1 RES     
   14245 C0         468.3396  -369.3667  -338.2921 C0            1 RES     
   14246 C0         463.8019  -371.5493  -330.5959 C0            1 RES     
   14247 C0         462.3648  -371.6987  -330.0085 C0            1 RES     
   14248 C0         462.4708  -372.1143  -328.5381 C0            1 RES     
   14249 C0         461.2130  -372.6342  -327.8478 C0            1 RES     
   14250 C0         460.2203  -371.5847  -327.3696 C0            1 RES     
   14251 C0         459.0608  -372.3208  -326.6659 C0            1 RES     
   14252 C0         458.0672  -371.3977  -325.9568 C0            1 RES     
   14253 C0         458.6853  -370.7043  -324.7409 C0            1 RES     
   14254 H6         463.3000  -374.3106  -331.7073 H6            1 RES     
   14255 H6         464.8015  -374.3126  -332.6096 H6            1 RES     
   14256 H6         465.2463  -372.0751  -332.0778 H6            1 RES     
   14257 H6         462.2855  -372.6199  -332.8506 H6            1 RES     
   14258 H6         463.7204  -372.7512  -333.9184 H6            1 RES     
   14259 H6         464.0516  -370.2669  -333.7445 H6            1 RES     
   14260 H6         462.6124  -370.1689  -332.6715 H6            1 RES     
   14261 H6         461.9294  -369.5473  -334.9001 H6            1 RES     
   14262 H6         461.1175  -371.0533  -334.4103 H6            1 RES     
   14263 H6         461.7965  -371.1013  -336.7877 H6            1 RES     
   14264 H6         462.5796  -372.4116  -335.8620 H6            1 RES     
   14265 H6         464.7186  -371.1728  -335.7902 H6            1 RES     
   14266 H6         464.1295  -371.4161  -337.4665 H6            1 RES     
   14267 H6         463.8408  -368.8214  -335.8106 H6            1 RES     
   14268 H6         463.2679  -369.0310  -337.5047 H6            1 RES     
   14269 H6         465.4310  -367.7937  -337.2628 H6            1 RES     
   14270 H6         466.1729  -369.2294  -336.4685 H6            1 RES     
   14271 H6         465.8392  -370.5388  -338.6349 H6            1 RES     
   14272 H6         465.0175  -369.0975  -339.3378 H6            1 RES     
   14273 H6         467.1267  -367.7726  -339.1308 H6            1 RES     
   14274 H6         467.2985  -369.2341  -340.1668 H6            1 RES     
   14275 H6         468.2770  -369.0036  -337.2465 H6            1 RES     
   14276 H6         468.3835  -370.4766  -338.2949 H6            1 RES     
   14277 H6         469.2791  -368.9730  -338.7332 H6            1 RES     
   14278 H6         463.9174  -370.4843  -330.8904 H6            1 RES     
   14279 H6         464.5741  -371.6641  -329.8054 H6            1 RES     
   14280 H6         461.8155  -370.7317  -330.0574 H6            1 RES     
   14281 H6         461.7923  -372.4508  -330.5884 H6            1 RES     
   14282 H6         462.9883  -371.3505  -327.9204 H6            1 RES     
   14283 H6         463.0999  -372.9782  -328.5727 H6            1 RES     
   14284 H6         460.7274  -373.3683  -328.4954 H6            1 RES     
   14285 H6         461.5568  -373.1767  -326.9378 H6            1 RES     
   14286 H6         460.7590  -370.9235  -326.6582 H6            1 RES     
   14287 H6         459.8340  -370.9761  -328.2143 H6            1 RES     
   14288 H6         458.5146  -372.9143  -327.4337 H6            1 RES     
   14289 H6         459.4559  -373.0353  -325.9084 H6            1 RES     
   14290 H6         457.2267  -372.0259  -325.5881 H6            1 RES     
   14291 H6         457.6606  -370.6493  -326.6691 H6            1 RES     
   14292 H6         459.5100  -370.0257  -325.0354 H6            1 RES     
   14293 H6         457.9101  -370.1036  -324.2233 H6            1 RES     
   14294 H6         459.0765  -371.4624  -324.0261 H6            1 RES     
   14295 C0         465.1620  -376.3713  -331.0000 C0            1 RES     
   14296 C0         464.3475  -377.0896  -332.1690 C0            1 RES     
   14297 C0         464.4258  -378.6272  -331.8825 C0            1 RES     
   14298 C0         463.9372  -379.5433  -333.0228 C0            1 RES     
   14299 C0         464.0097  -381.0438  -332.6891 C0            1 RES     
   14300 C0         465.4116  -381.5892  -332.3632 C0            1 RES     
   14301 C0         466.4865  -381.3054  -333.4255 C0            1 RES     
   14302 C0         466.1289  -381.8507  -334.8194 C0            1 RES     
   14303 C0         467.2109  -381.5545  -335.8705 C0            1 RES     
   14304 C0         468.5288  -382.3023  -335.6005 C0            1 RES     
   14305 C0         469.5688  -382.1072  -336.7148 C0            1 RES     
   14306 C0         470.0624  -380.6652  -336.8337 C0            1 RES     
   14307 C0         462.9002  -376.6729  -332.6679 C0            1 RES     
   14308 C0         461.6387  -376.8529  -331.7768 C0            1 RES     
   14309 C0         461.1146  -375.5145  -331.2259 C0            1 RES     
   14310 C0         459.9198  -375.5847  -330.2893 C0            1 RES     
   14311 C0         458.5706  -375.9107  -330.9142 C0            1 RES     
   14312 C0         457.5092  -375.7511  -329.8066 C0            1 RES     
   14313 C0         456.0638  -375.8903  -330.2878 C0            1 RES     
   14314 C0         455.6438  -374.7410  -331.2052 C0            1 RES     
   14315 H6         465.1051  -377.0055  -330.0848 H6            1 RES     
   14316 H6         466.2292  -376.5189  -331.2815 H6            1 RES     
   14317 H6         464.9620  -376.8911  -333.0773 H6            1 RES     
   14318 H6         463.8371  -378.8565  -330.9681 H6            1 RES     
   14319 H6         465.4882  -378.8801  -331.6773 H6            1 RES     
   14320 H6         464.5187  -379.3259  -333.9432 H6            1 RES     
   14321 H6         462.8658  -379.3586  -333.2325 H6            1 RES     
   14322 H6         463.5986  -381.6030  -333.5566 H6            1 RES     
   14323 H6         463.3442  -381.2587  -331.8243 H6            1 RES     
   14324 H6         465.3236  -382.6881  -332.2174 H6            1 RES     
   14325 H6         465.7574  -381.1585  -331.3994 H6            1 RES     
   14326 H6         466.6605  -380.2103  -333.4949 H6            1 RES     
   14327 H6         467.4237  -381.7749  -333.0630 H6            1 RES     
   14328 H6         465.1987  -381.3570  -335.1702 H6            1 RES     
   14329 H6         465.9438  -382.9456  -334.7690 H6            1 RES     
   14330 H6         466.8206  -381.8858  -336.8574 H6            1 RES     
   14331 H6         467.3782  -380.4573  -335.9131 H6            1 RES     
   14332 H6         468.9777  -381.9830  -334.6374 H6            1 RES     
   14333 H6         468.3024  -383.3891  -335.5380 H6            1 RES     
   14334 H6         469.1453  -382.4386  -337.6877 H6            1 RES     
   14335 H6         470.4455  -382.7495  -336.4824 H6            1 RES     
   14336 H6         469.2392  -379.9791  -337.1180 H6            1 RES     
   14337 H6         470.5064  -380.3308  -335.8720 H6            1 RES     
   14338 H6         470.8418  -380.6087  -337.6224 H6            1 RES     
   14339 H6         462.7203  -377.3031  -333.5582 H6            1 RES     
   14340 H6         462.8827  -375.6977  -333.1898 H6            1 RES     
   14341 H6         460.8157  -377.2235  -332.4268 H6            1 RES     
   14342 H6         461.8126  -377.6173  -330.9926 H6            1 RES     
   14343 H6         460.8987  -374.8120  -332.0626 H6            1 RES     
   14344 H6         461.8686  -375.0585  -330.5941 H6            1 RES     
   14345 H6         460.1451  -376.2645  -329.4390 H6            1 RES     
   14346 H6         459.8003  -374.5569  -329.9086 H6            1 RES     
   14347 H6         458.3921  -375.1829  -331.7338 H6            1 RES     
   14348 H6         458.5585  -376.9400  -331.3295 H6            1 RES     
   14349 H6         457.7043  -376.5222  -329.0291 H6            1 RES     
   14350 H6         457.6049  -374.7526  -329.3209 H6            1 RES     
   14351 H6         455.4110  -375.8539  -329.3881 H6            1 RES     
   14352 H6         455.9212  -376.8674  -330.7905 H6            1 RES     
   14353 H6         456.2286  -374.7393  -332.1465 H6            1 RES     
   14354 H6         454.5707  -374.8519  -331.4634 H6            1 RES     
   14355 H6         455.7819  -373.7658  -330.6887 H6            1 RES     
   14356 C0         477.0134  -370.5485  -333.1829 C0            1 RES     
   14357 C1         475.8959  -370.8656  -332.1649 C1            1 RES     
   14358 C1         476.3612  -370.9331  -330.8905 C1            1 RES     
   14359 S2         475.1925  -371.3660  -329.7728 S2            1 RES     
   14360 C1         474.0039  -371.5252  -330.9781 C1            1 RES     
   14361 C1         474.5437  -371.2396  -332.2370 C1            1 RES     
   14362 C1         477.7565  -370.7192  -330.9035 C1            1 RES     
   14363 C1         478.1765  -370.5836  -332.1904 C1            1 RES     
   14364 C1         479.5609  -370.5127  -332.2897 C1            1 RES     
   14365 C1         480.1514  -370.5647  -331.0158 C1            1 RES     
   14366 S2         478.9892  -370.7135  -329.7868 S2            1 RES     
   14367 H3         473.9684  -371.3587  -333.1354 H3            1 RES     
   14368 H3         480.1067  -370.4337  -333.2223 H3            1 RES     
   14369 N4         483.5658  -369.6584  -329.7623 N4            1 RES     
   14370 C1         482.2359  -369.5714  -330.0588 C1            1 RES     
   14371 C1         481.5809  -370.6182  -330.7304 C1            1 RES     
   14372 C1         482.3226  -371.7532  -331.0627 C1            1 RES     
   14373 N4         481.8003  -372.8554  -331.6591 N4            1 RES     
   14374 S2         483.1072  -373.8644  -331.7369 S2            1 RES     
   14375 N4         484.3286  -372.9823  -331.0526 N4            1 RES     
   14376 C1         483.6976  -371.8273  -330.7263 C1            1 RES     
   14377 C1         484.3093  -370.7541  -330.0838 C1            1 RES     
   14378 H5         481.6851  -368.6777  -329.7784 H5            1 RES     
   14379 C0         477.0253  -369.1593  -333.9129 C0            1 RES     
   14380 C0         477.3552  -367.7209  -333.3615 C0            1 RES     
   14381 C0         477.0617  -366.7477  -334.5569 C0            1 RES     
   14382 C0         477.3671  -365.2617  -334.3310 C0            1 RES     
   14383 C0         476.9917  -364.3931  -335.5547 C0            1 RES     
   14384 C0         477.7598  -364.7007  -336.8591 C0            1 RES     
   14385 C0         479.2928  -364.6460  -336.7365 C0            1 RES     
   14386 C0         479.8095  -363.2860  -336.2343 C0            1 RES     
   14387 C0         481.3345  -363.2522  -336.0596 C0            1 RES     
   14388 C0         482.0991  -363.3590  -337.3898 C0            1 RES     
   14389 C0         483.6186  -363.2089  -337.2148 C0            1 RES     
   14390 C0         484.2482  -364.3488  -336.4132 C0            1 RES     
   14391 C0         476.6939  -367.2328  -332.0313 C0            1 RES     
   14392 C0         475.1474  -367.0384  -331.9752 C0            1 RES     
   14393 C0         474.5730  -367.9447  -330.8821 C0            1 RES     
   14394 C0         473.0641  -368.1717  -330.8589 C0            1 RES     
   14395 C0         472.2228  -367.0667  -330.2370 C0            1 RES     
   14396 C0         470.7485  -367.5211  -330.2744 C0            1 RES     
   14397 C0         469.7878  -366.6049  -329.5130 C0            1 RES     
   14398 C0         470.0161  -366.6527  -328.0008 C0            1 RES     
   14399 H6         476.0702  -369.0500  -334.3595 H6            1 RES     
   14400 H6         477.7642  -369.2898  -334.7355 H6            1 RES     
   14401 H6         478.4484  -367.7038  -333.1533 H6            1 RES     
   14402 H6         475.9877  -366.8225  -334.8352 H6            1 RES     
   14403 H6         477.6586  -367.0924  -335.4283 H6            1 RES     
   14404 H6         478.4364  -365.1279  -334.0692 H6            1 RES     
   14405 H6         476.7523  -364.8869  -333.4880 H6            1 RES     
   14406 H6         477.1547  -363.3291  -335.2854 H6            1 RES     
   14407 H6         475.9041  -364.5021  -335.7623 H6            1 RES     
   14408 H6         477.4325  -363.9703  -337.6322 H6            1 RES     
   14409 H6         477.4780  -365.7091  -337.2306 H6            1 RES     
   14410 H6         479.6338  -365.4475  -336.0477 H6            1 RES     
   14411 H6         479.7117  -364.8622  -337.7412 H6            1 RES     
   14412 H6         479.3791  -363.0876  -335.2316 H6            1 RES     
   14413 H6         479.4861  -362.4730  -336.9207 H6            1 RES     
   14414 H6         481.5963  -362.2802  -335.5873 H6            1 RES     
   14415 H6         481.6289  -364.0669  -335.3651 H6            1 RES     
   14416 H6         481.8909  -364.3267  -337.8916 H6            1 RES     
   14417 H6         481.7525  -362.5376  -338.0542 H6            1 RES     
   14418 H6         483.8477  -362.2373  -336.7250 H6            1 RES     
   14419 H6         484.0838  -363.2047  -338.2242 H6            1 RES     
   14420 H6         483.8625  -364.3737  -335.3741 H6            1 RES     
   14421 H6         484.0426  -365.3227  -336.9062 H6            1 RES     
   14422 H6         485.3473  -364.2003  -336.3646 H6            1 RES     
   14423 H6         477.1486  -366.2532  -331.7702 H6            1 RES     
   14424 H6         477.0477  -367.8882  -331.2068 H6            1 RES     
   14425 H6         474.8905  -365.9850  -331.7235 H6            1 RES     
   14426 H6         474.6972  -367.2780  -332.9599 H6            1 RES     
   14427 H6         474.9619  -367.6881  -329.8743 H6            1 RES     
   14428 H6         474.9568  -368.9095  -331.1374 H6            1 RES     
   14429 H6         472.7221  -368.4040  -331.8705 H6            1 RES     
   14430 H6         472.8938  -369.0809  -330.2386 H6            1 RES     
   14431 H6         472.5711  -366.9389  -329.1902 H6            1 RES     
   14432 H6         472.3443  -366.1074  -330.7830 H6            1 RES     
   14433 H6         470.4306  -367.5683  -331.3407 H6            1 RES     
   14434 H6         470.6456  -368.5450  -329.8483 H6            1 RES     
   14435 H6         468.7535  -366.9671  -329.7035 H6            1 RES     
   14436 H6         469.8701  -365.5632  -329.8883 H6            1 RES     
   14437 H6         471.0182  -366.2668  -327.7285 H6            1 RES     
   14438 H6         469.2540  -366.0288  -327.4913 H6            1 RES     
   14439 H6         469.9169  -367.6981  -327.6319 H6            1 RES     
   14440 C0         476.9983  -371.7569  -334.2004 C0            1 RES     
   14441 C0         476.5707  -371.6748  -335.7355 C0            1 RES     
   14442 C0         476.1876  -373.1307  -336.1664 C0            1 RES     
   14443 C0         475.9959  -373.3488  -337.6809 C0            1 RES     
   14444 C0         475.5972  -374.7870  -338.0563 C0            1 RES     
   14445 C0         476.6000  -375.8844  -337.6575 C0            1 RES     
   14446 C0         478.0394  -375.6658  -338.1526 C0            1 RES     
   14447 C0         478.1462  -375.5239  -339.6812 C0            1 RES     
   14448 C0         479.5902  -375.3009  -340.1592 C0            1 RES     
   14449 C0         480.4951  -376.5231  -339.9216 C0            1 RES     
   14450 C0         481.9040  -376.3503  -340.5102 C0            1 RES     
   14451 C0         482.7107  -375.2443  -339.8298 C0            1 RES     
   14452 C0         475.5669  -370.6121  -336.3519 C0            1 RES     
   14453 C0         474.0511  -370.6135  -336.0047 C0            1 RES     
   14454 C0         473.6636  -369.4558  -335.0672 C0            1 RES     
   14455 C0         472.2139  -369.4026  -334.6141 C0            1 RES     
   14456 C0         471.1825  -368.9738  -335.6482 C0            1 RES     
   14457 C0         469.8357  -368.8300  -334.9103 C0            1 RES     
   14458 C0         468.7033  -368.2544  -335.7627 C0            1 RES     
   14459 C0         468.9430  -366.7905  -336.1348 C0            1 RES     
   14460 H6         476.4479  -372.6003  -333.7222 H6            1 RES     
   14461 H6         478.0288  -372.1780  -334.2272 H6            1 RES     
   14462 H6         477.5198  -371.4143  -336.2586 H6            1 RES     
   14463 H6         475.2525  -373.4293  -335.6451 H6            1 RES     
   14464 H6         476.9995  -373.8094  -335.8271 H6            1 RES     
   14465 H6         476.9243  -373.0559  -338.2145 H6            1 RES     
   14466 H6         475.1626  -372.7243  -338.0572 H6            1 RES     
   14467 H6         475.4468  -374.8195  -339.1566 H6            1 RES     
   14468 H6         474.6162  -375.0279  -337.5910 H6            1 RES     
   14469 H6         476.2208  -376.8519  -338.0535 H6            1 RES     
   14470 H6         476.6260  -375.9723  -336.5504 H6            1 RES     
   14471 H6         478.4644  -374.7595  -337.6706 H6            1 RES     
   14472 H6         478.6298  -376.5400  -337.8101 H6            1 RES     
   14473 H6         477.5628  -374.6353  -340.0009 H6            1 RES     
   14474 H6         477.7186  -376.4193  -340.1821 H6            1 RES     
   14475 H6         479.5556  -375.1029  -341.2527 H6            1 RES     
   14476 H6         479.9994  -374.3997  -339.6553 H6            1 RES     
   14477 H6         480.5887  -376.7448  -338.8385 H6            1 RES     
   14478 H6         480.0276  -377.4006  -340.4194 H6            1 RES     
   14479 H6         481.8342  -376.1451  -341.6006 H6            1 RES     
   14480 H6         482.4531  -377.3067  -340.3728 H6            1 RES     
   14481 H6         482.2394  -374.2518  -339.9776 H6            1 RES     
   14482 H6         482.8038  -375.4507  -338.7423 H6            1 RES     
   14483 H6         483.7285  -375.2085  -340.2720 H6            1 RES     
   14484 H6         475.6159  -370.7827  -337.4430 H6            1 RES     
   14485 H6         475.9720  -369.5827  -336.3601 H6            1 RES     
   14486 H6         473.4894  -370.4074  -336.9423 H6            1 RES     
   14487 H6         473.7293  -371.6086  -335.6365 H6            1 RES     
   14488 H6         473.9548  -368.4805  -335.5191 H6            1 RES     
   14489 H6         474.1898  -369.5566  -334.1245 H6            1 RES     
   14490 H6         471.9308  -370.3664  -334.1378 H6            1 RES     
   14491 H6         472.1856  -368.6026  -333.8560 H6            1 RES     
   14492 H6         471.5060  -367.9963  -336.0642 H6            1 RES     
   14493 H6         471.1066  -369.7149  -336.4710 H6            1 RES     
   14494 H6         469.5339  -369.8365  -334.5453 H6            1 RES     
   14495 H6         469.9517  -368.1705  -334.0195 H6            1 RES     
   14496 H6         467.7756  -368.2949  -335.1506 H6            1 RES     
   14497 H6         468.5568  -368.8724  -336.6706 H6            1 RES     
   14498 H6         469.8347  -366.6778  -336.7830 H6            1 RES     
   14499 H6         468.0617  -366.4039  -336.6866 H6            1 RES     
   14500 H6         469.0797  -366.1772  -335.2172 H6            1 RES     
   14501 H5           6.3992     8.1748    11.5229 H5            1 RES     
   14502 H5         485.3695  -370.7949  -329.8173 H5            1 RES     
@<TRIPOS>BOND
       1        1        2 1
       2        1        8 1
       3        1       24 1
       4        1       85 1
       5        2        3 1
       6        2        6 1
       7        3        4 1
       8        3        7 1
       9        4        5 1
      10        5        6 1
      11        5    14501 1
      12        6       12 1
      13        7        8 1
      14        7       11 1
      15        8        9 1
      16        9       10 1
      17        9       13 1
      18       10       11 1
      19       10       16 1
      20       14       15 1
      21       14       22 1
      22       15       16 1
      23       15       23 1
      24       16       17 1
      25       17       18 1
      26       17       21 1
      27       18       19 1
      28       19       20 1
      29       20       21 1
      30       21       22 1
      31       22      150 1
      32       24       25 1
      33       24       44 1
      34       24       45 1
      35       25       26 1
      36       25       36 1
      37       25       46 1
      38       26       27 1
      39       26       47 1
      40       26       48 1
      41       27       28 1
      42       27       49 1
      43       27       50 1
      44       28       29 1
      45       28       51 1
      46       28       52 1
      47       29       30 1
      48       29       53 1
      49       29       54 1
      50       30       31 1
      51       30       55 1
      52       30       56 1
      53       31       32 1
      54       31       57 1
      55       31       58 1
      56       32       33 1
      57       32       59 1
      58       32       60 1
      59       33       34 1
      60       33       61 1
      61       33       62 1
      62       34       35 1
      63       34       63 1
      64       34       64 1
      65       35       65 1
      66       35       66 1
      67       35       67 1
      68       36       37 1
      69       36       68 1
      70       36       69 1
      71       37       38 1
      72       37       70 1
      73       37       71 1
      74       38       39 1
      75       38       72 1
      76       38       73 1
      77       39       40 1
      78       39       74 1
      79       39       75 1
      80       40       41 1
      81       40       76 1
      82       40       77 1
      83       41       42 1
      84       41       78 1
      85       41       79 1
      86       42       43 1
      87       42       80 1
      88       42       81 1
      89       43       82 1
      90       43       83 1
      91       43       84 1
      92       85       86 1
      93       85      105 1
      94       85      106 1
      95       86       87 1
      96       86       97 1
      97       86      107 1
      98       87       88 1
      99       87      108 1
     100       87      109 1
     101       88       89 1
     102       88      110 1
     103       88      111 1
     104       89       90 1
     105       89      112 1
     106       89      113 1
     107       90       91 1
     108       90      114 1
     109       90      115 1
     110       91       92 1
     111       91      116 1
     112       91      117 1
     113       92       93 1
     114       92      118 1
     115       92      119 1
     116       93       94 1
     117       93      120 1
     118       93      121 1
     119       94       95 1
     120       94      122 1
     121       94      123 1
     122       95       96 1
     123       95      124 1
     124       95      125 1
     125       96      126 1
     126       96      127 1
     127       96      128 1
     128       97       98 1
     129       97      129 1
     130       97      130 1
     131       98       99 1
     132       98      131 1
     133       98      132 1
     134       99      100 1
     135       99      133 1
     136       99      134 1
     137      100      101 1
     138      100      135 1
     139      100      136 1
     140      101      102 1
     141      101      137 1
     142      101      138 1
     143      102      103 1
     144      102      139 1
     145      102      140 1
     146      103      104 1
     147      103      141 1
     148      103      142 1
     149      104      143 1
     150      104      144 1
     151      104      145 1
     152      146      147 1
     153      146      153 1
     154      146      169 1
     155      146      230 1
     156      147      148 1
     157      147      151 1
     158      148      149 1
     159      148      152 1
     160      149      150 1
     161      150      151 1
     162      151      157 1
     163      152      153 1
     164      152      156 1
     165      153      154 1
     166      154      155 1
     167      154      158 1
     168      155      156 1
     169      155      161 1
     170      159      160 1
     171      159      167 1
     172      160      161 1
     173      160      168 1
     174      161      162 1
     175      162      163 1
     176      162      166 1
     177      163      164 1
     178      164      165 1
     179      165      166 1
     180      166      167 1
     181      167      295 1
     182      169      170 1
     183      169      189 1
     184      169      190 1
     185      170      171 1
     186      170      181 1
     187      170      191 1
     188      171      172 1
     189      171      192 1
     190      171      193 1
     191      172      173 1
     192      172      194 1
     193      172      195 1
     194      173      174 1
     195      173      196 1
     196      173      197 1
     197      174      175 1
     198      174      198 1
     199      174      199 1
     200      175      176 1
     201      175      200 1
     202      175      201 1
     203      176      177 1
     204      176      202 1
     205      176      203 1
     206      177      178 1
     207      177      204 1
     208      177      205 1
     209      178      179 1
     210      178      206 1
     211      178      207 1
     212      179      180 1
     213      179      208 1
     214      179      209 1
     215      180      210 1
     216      180      211 1
     217      180      212 1
     218      181      182 1
     219      181      213 1
     220      181      214 1
     221      182      183 1
     222      182      215 1
     223      182      216 1
     224      183      184 1
     225      183      217 1
     226      183      218 1
     227      184      185 1
     228      184      219 1
     229      184      220 1
     230      185      186 1
     231      185      221 1
     232      185      222 1
     233      186      187 1
     234      186      223 1
     235      186      224 1
     236      187      188 1
     237      187      225 1
     238      187      226 1
     239      188      227 1
     240      188      228 1
     241      188      229 1
     242      230      231 1
     243      230      250 1
     244      230      251 1
     245      231      232 1
     246      231      242 1
     247      231      252 1
     248      232      233 1
     249      232      253 1
     250      232      254 1
     251      233      234 1
     252      233      255 1
     253      233      256 1
     254      234      235 1
     255      234      257 1
     256      234      258 1
     257      235      236 1
     258      235      259 1
     259      235      260 1
     260      236      237 1
     261      236      261 1
     262      236      262 1
     263      237      238 1
     264      237      263 1
     265      237      264 1
     266      238      239 1
     267      238      265 1
     268      238      266 1
     269      239      240 1
     270      239      267 1
     271      239      268 1
     272      240      241 1
     273      240      269 1
     274      240      270 1
     275      241      271 1
     276      241      272 1
     277      241      273 1
     278      242      243 1
     279      242      274 1
     280      242      275 1
     281      243      244 1
     282      243      276 1
     283      243      277 1
     284      244      245 1
     285      244      278 1
     286      244      279 1
     287      245      246 1
     288      245      280 1
     289      245      281 1
     290      246      247 1
     291      246      282 1
     292      246      283 1
     293      247      248 1
     294      247      284 1
     295      247      285 1
     296      248      249 1
     297      248      286 1
     298      248      287 1
     299      249      288 1
     300      249      289 1
     301      249      290 1
     302      291      292 1
     303      291      298 1
     304      291      314 1
     305      291      375 1
     306      292      293 1
     307      292      296 1
     308      293      294 1
     309      293      297 1
     310      294      295 1
     311      295      296 1
     312      296      302 1
     313      297      298 1
     314      297      301 1
     315      298      299 1
     316      299      300 1
     317      299      303 1
     318      300      301 1
     319      300      306 1
     320      304      305 1
     321      304      312 1
     322      305      306 1
     323      305      313 1
     324      306      307 1
     325      307      308 1
     326      307      311 1
     327      308      309 1
     328      309      310 1
     329      310      311 1
     330      311      312 1
     331      312      440 1
     332      314      315 1
     333      314      334 1
     334      314      335 1
     335      315      316 1
     336      315      326 1
     337      315      336 1
     338      316      317 1
     339      316      337 1
     340      316      338 1
     341      317      318 1
     342      317      339 1
     343      317      340 1
     344      318      319 1
     345      318      341 1
     346      318      342 1
     347      319      320 1
     348      319      343 1
     349      319      344 1
     350      320      321 1
     351      320      345 1
     352      320      346 1
     353      321      322 1
     354      321      347 1
     355      321      348 1
     356      322      323 1
     357      322      349 1
     358      322      350 1
     359      323      324 1
     360      323      351 1
     361      323      352 1
     362      324      325 1
     363      324      353 1
     364      324      354 1
     365      325      355 1
     366      325      356 1
     367      325      357 1
     368      326      327 1
     369      326      358 1
     370      326      359 1
     371      327      328 1
     372      327      360 1
     373      327      361 1
     374      328      329 1
     375      328      362 1
     376      328      363 1
     377      329      330 1
     378      329      364 1
     379      329      365 1
     380      330      331 1
     381      330      366 1
     382      330      367 1
     383      331      332 1
     384      331      368 1
     385      331      369 1
     386      332      333 1
     387      332      370 1
     388      332      371 1
     389      333      372 1
     390      333      373 1
     391      333      374 1
     392      375      376 1
     393      375      395 1
     394      375      396 1
     395      376      377 1
     396      376      387 1
     397      376      397 1
     398      377      378 1
     399      377      398 1
     400      377      399 1
     401      378      379 1
     402      378      400 1
     403      378      401 1
     404      379      380 1
     405      379      402 1
     406      379      403 1
     407      380      381 1
     408      380      404 1
     409      380      405 1
     410      381      382 1
     411      381      406 1
     412      381      407 1
     413      382      383 1
     414      382      408 1
     415      382      409 1
     416      383      384 1
     417      383      410 1
     418      383      411 1
     419      384      385 1
     420      384      412 1
     421      384      413 1
     422      385      386 1
     423      385      414 1
     424      385      415 1
     425      386      416 1
     426      386      417 1
     427      386      418 1
     428      387      388 1
     429      387      419 1
     430      387      420 1
     431      388      389 1
     432      388      421 1
     433      388      422 1
     434      389      390 1
     435      389      423 1
     436      389      424 1
     437      390      391 1
     438      390      425 1
     439      390      426 1
     440      391      392 1
     441      391      427 1
     442      391      428 1
     443      392      393 1
     444      392      429 1
     445      392      430 1
     446      393      394 1
     447      393      431 1
     448      393      432 1
     449      394      433 1
     450      394      434 1
     451      394      435 1
     452      436      437 1
     453      436      443 1
     454      436      459 1
     455      436      520 1
     456      437      438 1
     457      437      441 1
     458      438      439 1
     459      438      442 1
     460      439      440 1
     461      440      441 1
     462      441      447 1
     463      442      443 1
     464      442      446 1
     465      443      444 1
     466      444      445 1
     467      444      448 1
     468      445      446 1
     469      445      451 1
     470      449      450 1
     471      449      457 1
     472      450      451 1
     473      450      458 1
     474      451      452 1
     475      452      453 1
     476      452      456 1
     477      453      454 1
     478      454      455 1
     479      455      456 1
     480      456      457 1
     481      457      585 1
     482      459      460 1
     483      459      479 1
     484      459      480 1
     485      460      461 1
     486      460      471 1
     487      460      481 1
     488      461      462 1
     489      461      482 1
     490      461      483 1
     491      462      463 1
     492      462      484 1
     493      462      485 1
     494      463      464 1
     495      463      486 1
     496      463      487 1
     497      464      465 1
     498      464      488 1
     499      464      489 1
     500      465      466 1
     501      465      490 1
     502      465      491 1
     503      466      467 1
     504      466      492 1
     505      466      493 1
     506      467      468 1
     507      467      494 1
     508      467      495 1
     509      468      469 1
     510      468      496 1
     511      468      497 1
     512      469      470 1
     513      469      498 1
     514      469      499 1
     515      470      500 1
     516      470      501 1
     517      470      502 1
     518      471      472 1
     519      471      503 1
     520      471      504 1
     521      472      473 1
     522      472      505 1
     523      472      506 1
     524      473      474 1
     525      473      507 1
     526      473      508 1
     527      474      475 1
     528      474      509 1
     529      474      510 1
     530      475      476 1
     531      475      511 1
     532      475      512 1
     533      476      477 1
     534      476      513 1
     535      476      514 1
     536      477      478 1
     537      477      515 1
     538      477      516 1
     539      478      517 1
     540      478      518 1
     541      478      519 1
     542      520      521 1
     543      520      540 1
     544      520      541 1
     545      521      522 1
     546      521      532 1
     547      521      542 1
     548      522      523 1
     549      522      543 1
     550      522      544 1
     551      523      524 1
     552      523      545 1
     553      523      546 1
     554      524      525 1
     555      524      547 1
     556      524      548 1
     557      525      526 1
     558      525      549 1
     559      525      550 1
     560      526      527 1
     561      526      551 1
     562      526      552 1
     563      527      528 1
     564      527      553 1
     565      527      554 1
     566      528      529 1
     567      528      555 1
     568      528      556 1
     569      529      530 1
     570      529      557 1
     571      529      558 1
     572      530      531 1
     573      530      559 1
     574      530      560 1
     575      531      561 1
     576      531      562 1
     577      531      563 1
     578      532      533 1
     579      532      564 1
     580      532      565 1
     581      533      534 1
     582      533      566 1
     583      533      567 1
     584      534      535 1
     585      534      568 1
     586      534      569 1
     587      535      536 1
     588      535      570 1
     589      535      571 1
     590      536      537 1
     591      536      572 1
     592      536      573 1
     593      537      538 1
     594      537      574 1
     595      537      575 1
     596      538      539 1
     597      538      576 1
     598      538      577 1
     599      539      578 1
     600      539      579 1
     601      539      580 1
     602      581      582 1
     603      581      588 1
     604      581      604 1
     605      581      665 1
     606      582      583 1
     607      582      586 1
     608      583      584 1
     609      583      587 1
     610      584      585 1
     611      585      586 1
     612      586      592 1
     613      587      588 1
     614      587      591 1
     615      588      589 1
     616      589      590 1
     617      589      593 1
     618      590      591 1
     619      590      596 1
     620      594      595 1
     621      594      602 1
     622      595      596 1
     623      595      603 1
     624      596      597 1
     625      597      598 1
     626      597      601 1
     627      598      599 1
     628      599      600 1
     629      600      601 1
     630      601      602 1
     631      602      730 1
     632      604      605 1
     633      604      624 1
     634      604      625 1
     635      605      606 1
     636      605      616 1
     637      605      626 1
     638      606      607 1
     639      606      627 1
     640      606      628 1
     641      607      608 1
     642      607      629 1
     643      607      630 1
     644      608      609 1
     645      608      631 1
     646      608      632 1
     647      609      610 1
     648      609      633 1
     649      609      634 1
     650      610      611 1
     651      610      635 1
     652      610      636 1
     653      611      612 1
     654      611      637 1
     655      611      638 1
     656      612      613 1
     657      612      639 1
     658      612      640 1
     659      613      614 1
     660      613      641 1
     661      613      642 1
     662      614      615 1
     663      614      643 1
     664      614      644 1
     665      615      645 1
     666      615      646 1
     667      615      647 1
     668      616      617 1
     669      616      648 1
     670      616      649 1
     671      617      618 1
     672      617      650 1
     673      617      651 1
     674      618      619 1
     675      618      652 1
     676      618      653 1
     677      619      620 1
     678      619      654 1
     679      619      655 1
     680      620      621 1
     681      620      656 1
     682      620      657 1
     683      621      622 1
     684      621      658 1
     685      621      659 1
     686      622      623 1
     687      622      660 1
     688      622      661 1
     689      623      662 1
     690      623      663 1
     691      623      664 1
     692      665      666 1
     693      665      685 1
     694      665      686 1
     695      666      667 1
     696      666      677 1
     697      666      687 1
     698      667      668 1
     699      667      688 1
     700      667      689 1
     701      668      669 1
     702      668      690 1
     703      668      691 1
     704      669      670 1
     705      669      692 1
     706      669      693 1
     707      670      671 1
     708      670      694 1
     709      670      695 1
     710      671      672 1
     711      671      696 1
     712      671      697 1
     713      672      673 1
     714      672      698 1
     715      672      699 1
     716      673      674 1
     717      673      700 1
     718      673      701 1
     719      674      675 1
     720      674      702 1
     721      674      703 1
     722      675      676 1
     723      675      704 1
     724      675      705 1
     725      676      706 1
     726      676      707 1
     727      676      708 1
     728      677      678 1
     729      677      709 1
     730      677      710 1
     731      678      679 1
     732      678      711 1
     733      678      712 1
     734      679      680 1
     735      679      713 1
     736      679      714 1
     737      680      681 1
     738      680      715 1
     739      680      716 1
     740      681      682 1
     741      681      717 1
     742      681      718 1
     743      682      683 1
     744      682      719 1
     745      682      720 1
     746      683      684 1
     747      683      721 1
     748      683      722 1
     749      684      723 1
     750      684      724 1
     751      684      725 1
     752      726      727 1
     753      726      733 1
     754      726      749 1
     755      726      810 1
     756      727      728 1
     757      727      731 1
     758      728      729 1
     759      728      732 1
     760      729      730 1
     761      730      731 1
     762      731      737 1
     763      732      733 1
     764      732      736 1
     765      733      734 1
     766      734      735 1
     767      734      738 1
     768      735      736 1
     769      735      741 1
     770      739      740 1
     771      739      747 1
     772      740      741 1
     773      740      748 1
     774      741      742 1
     775      742      743 1
     776      742      746 1
     777      743      744 1
     778      744      745 1
     779      745      746 1
     780      746      747 1
     781      747      875 1
     782      749      750 1
     783      749      769 1
     784      749      770 1
     785      750      751 1
     786      750      761 1
     787      750      771 1
     788      751      752 1
     789      751      772 1
     790      751      773 1
     791      752      753 1
     792      752      774 1
     793      752      775 1
     794      753      754 1
     795      753      776 1
     796      753      777 1
     797      754      755 1
     798      754      778 1
     799      754      779 1
     800      755      756 1
     801      755      780 1
     802      755      781 1
     803      756      757 1
     804      756      782 1
     805      756      783 1
     806      757      758 1
     807      757      784 1
     808      757      785 1
     809      758      759 1
     810      758      786 1
     811      758      787 1
     812      759      760 1
     813      759      788 1
     814      759      789 1
     815      760      790 1
     816      760      791 1
     817      760      792 1
     818      761      762 1
     819      761      793 1
     820      761      794 1
     821      762      763 1
     822      762      795 1
     823      762      796 1
     824      763      764 1
     825      763      797 1
     826      763      798 1
     827      764      765 1
     828      764      799 1
     829      764      800 1
     830      765      766 1
     831      765      801 1
     832      765      802 1
     833      766      767 1
     834      766      803 1
     835      766      804 1
     836      767      768 1
     837      767      805 1
     838      767      806 1
     839      768      807 1
     840      768      808 1
     841      768      809 1
     842      810      811 1
     843      810      830 1
     844      810      831 1
     845      811      812 1
     846      811      822 1
     847      811      832 1
     848      812      813 1
     849      812      833 1
     850      812      834 1
     851      813      814 1
     852      813      835 1
     853      813      836 1
     854      814      815 1
     855      814      837 1
     856      814      838 1
     857      815      816 1
     858      815      839 1
     859      815      840 1
     860      816      817 1
     861      816      841 1
     862      816      842 1
     863      817      818 1
     864      817      843 1
     865      817      844 1
     866      818      819 1
     867      818      845 1
     868      818      846 1
     869      819      820 1
     870      819      847 1
     871      819      848 1
     872      820      821 1
     873      820      849 1
     874      820      850 1
     875      821      851 1
     876      821      852 1
     877      821      853 1
     878      822      823 1
     879      822      854 1
     880      822      855 1
     881      823      824 1
     882      823      856 1
     883      823      857 1
     884      824      825 1
     885      824      858 1
     886      824      859 1
     887      825      826 1
     888      825      860 1
     889      825      861 1
     890      826      827 1
     891      826      862 1
     892      826      863 1
     893      827      828 1
     894      827      864 1
     895      827      865 1
     896      828      829 1
     897      828      866 1
     898      828      867 1
     899      829      868 1
     900      829      869 1
     901      829      870 1
     902      871      872 1
     903      871      878 1
     904      871      894 1
     905      871      955 1
     906      872      873 1
     907      872      876 1
     908      873      874 1
     909      873      877 1
     910      874      875 1
     911      875      876 1
     912      876      882 1
     913      877      878 1
     914      877      881 1
     915      878      879 1
     916      879      880 1
     917      879      883 1
     918      880      881 1
     919      880      886 1
     920      884      885 1
     921      884      892 1
     922      885      886 1
     923      885      893 1
     924      886      887 1
     925      887      888 1
     926      887      891 1
     927      888      889 1
     928      889      890 1
     929      890      891 1
     930      891      892 1
     931      892     1020 1
     932      894      895 1
     933      894      914 1
     934      894      915 1
     935      895      896 1
     936      895      906 1
     937      895      916 1
     938      896      897 1
     939      896      917 1
     940      896      918 1
     941      897      898 1
     942      897      919 1
     943      897      920 1
     944      898      899 1
     945      898      921 1
     946      898      922 1
     947      899      900 1
     948      899      923 1
     949      899      924 1
     950      900      901 1
     951      900      925 1
     952      900      926 1
     953      901      902 1
     954      901      927 1
     955      901      928 1
     956      902      903 1
     957      902      929 1
     958      902      930 1
     959      903      904 1
     960      903      931 1
     961      903      932 1
     962      904      905 1
     963      904      933 1
     964      904      934 1
     965      905      935 1
     966      905      936 1
     967      905      937 1
     968      906      907 1
     969      906      938 1
     970      906      939 1
     971      907      908 1
     972      907      940 1
     973      907      941 1
     974      908      909 1
     975      908      942 1
     976      908      943 1
     977      909      910 1
     978      909      944 1
     979      909      945 1
     980      910      911 1
     981      910      946 1
     982      910      947 1
     983      911      912 1
     984      911      948 1
     985      911      949 1
     986      912      913 1
     987      912      950 1
     988      912      951 1
     989      913      952 1
     990      913      953 1
     991      913      954 1
     992      955      956 1
     993      955      975 1
     994      955      976 1
     995      956      957 1
     996      956      967 1
     997      956      977 1
     998      957      958 1
     999      957      978 1
    1000      957      979 1
    1001      958      959 1
    1002      958      980 1
    1003      958      981 1
    1004      959      960 1
    1005      959      982 1
    1006      959      983 1
    1007      960      961 1
    1008      960      984 1
    1009      960      985 1
    1010      961      962 1
    1011      961      986 1
    1012      961      987 1
    1013      962      963 1
    1014      962      988 1
    1015      962      989 1
    1016      963      964 1
    1017      963      990 1
    1018      963      991 1
    1019      964      965 1
    1020      964      992 1
    1021      964      993 1
    1022      965      966 1
    1023      965      994 1
    1024      965      995 1
    1025      966      996 1
    1026      966      997 1
    1027      966      998 1
    1028      967      968 1
    1029      967      999 1
    1030      967     1000 1
    1031      968      969 1
    1032      968     1001 1
    1033      968     1002 1
    1034      969      970 1
    1035      969     1003 1
    1036      969     1004 1
    1037      970      971 1
    1038      970     1005 1
    1039      970     1006 1
    1040      971      972 1
    1041      971     1007 1
    1042      971     1008 1
    1043      972      973 1
    1044      972     1009 1
    1045      972     1010 1
    1046      973      974 1
    1047      973     1011 1
    1048      973     1012 1
    1049      974     1013 1
    1050      974     1014 1
    1051      974     1015 1
    1052     1016     1017 1
    1053     1016     1023 1
    1054     1016     1039 1
    1055     1016     1100 1
    1056     1017     1018 1
    1057     1017     1021 1
    1058     1018     1019 1
    1059     1018     1022 1
    1060     1019     1020 1
    1061     1020     1021 1
    1062     1021     1027 1
    1063     1022     1023 1
    1064     1022     1026 1
    1065     1023     1024 1
    1066     1024     1025 1
    1067     1024     1028 1
    1068     1025     1026 1
    1069     1025     1031 1
    1070     1029     1030 1
    1071     1029     1037 1
    1072     1030     1031 1
    1073     1030     1038 1
    1074     1031     1032 1
    1075     1032     1033 1
    1076     1032     1036 1
    1077     1033     1034 1
    1078     1034     1035 1
    1079     1035     1036 1
    1080     1036     1037 1
    1081     1037     1165 1
    1082     1039     1040 1
    1083     1039     1059 1
    1084     1039     1060 1
    1085     1040     1041 1
    1086     1040     1051 1
    1087     1040     1061 1
    1088     1041     1042 1
    1089     1041     1062 1
    1090     1041     1063 1
    1091     1042     1043 1
    1092     1042     1064 1
    1093     1042     1065 1
    1094     1043     1044 1
    1095     1043     1066 1
    1096     1043     1067 1
    1097     1044     1045 1
    1098     1044     1068 1
    1099     1044     1069 1
    1100     1045     1046 1
    1101     1045     1070 1
    1102     1045     1071 1
    1103     1046     1047 1
    1104     1046     1072 1
    1105     1046     1073 1
    1106     1047     1048 1
    1107     1047     1074 1
    1108     1047     1075 1
    1109     1048     1049 1
    1110     1048     1076 1
    1111     1048     1077 1
    1112     1049     1050 1
    1113     1049     1078 1
    1114     1049     1079 1
    1115     1050     1080 1
    1116     1050     1081 1
    1117     1050     1082 1
    1118     1051     1052 1
    1119     1051     1083 1
    1120     1051     1084 1
    1121     1052     1053 1
    1122     1052     1085 1
    1123     1052     1086 1
    1124     1053     1054 1
    1125     1053     1087 1
    1126     1053     1088 1
    1127     1054     1055 1
    1128     1054     1089 1
    1129     1054     1090 1
    1130     1055     1056 1
    1131     1055     1091 1
    1132     1055     1092 1
    1133     1056     1057 1
    1134     1056     1093 1
    1135     1056     1094 1
    1136     1057     1058 1
    1137     1057     1095 1
    1138     1057     1096 1
    1139     1058     1097 1
    1140     1058     1098 1
    1141     1058     1099 1
    1142     1100     1101 1
    1143     1100     1120 1
    1144     1100     1121 1
    1145     1101     1102 1
    1146     1101     1112 1
    1147     1101     1122 1
    1148     1102     1103 1
    1149     1102     1123 1
    1150     1102     1124 1
    1151     1103     1104 1
    1152     1103     1125 1
    1153     1103     1126 1
    1154     1104     1105 1
    1155     1104     1127 1
    1156     1104     1128 1
    1157     1105     1106 1
    1158     1105     1129 1
    1159     1105     1130 1
    1160     1106     1107 1
    1161     1106     1131 1
    1162     1106     1132 1
    1163     1107     1108 1
    1164     1107     1133 1
    1165     1107     1134 1
    1166     1108     1109 1
    1167     1108     1135 1
    1168     1108     1136 1
    1169     1109     1110 1
    1170     1109     1137 1
    1171     1109     1138 1
    1172     1110     1111 1
    1173     1110     1139 1
    1174     1110     1140 1
    1175     1111     1141 1
    1176     1111     1142 1
    1177     1111     1143 1
    1178     1112     1113 1
    1179     1112     1144 1
    1180     1112     1145 1
    1181     1113     1114 1
    1182     1113     1146 1
    1183     1113     1147 1
    1184     1114     1115 1
    1185     1114     1148 1
    1186     1114     1149 1
    1187     1115     1116 1
    1188     1115     1150 1
    1189     1115     1151 1
    1190     1116     1117 1
    1191     1116     1152 1
    1192     1116     1153 1
    1193     1117     1118 1
    1194     1117     1154 1
    1195     1117     1155 1
    1196     1118     1119 1
    1197     1118     1156 1
    1198     1118     1157 1
    1199     1119     1158 1
    1200     1119     1159 1
    1201     1119     1160 1
    1202     1161     1162 1
    1203     1161     1168 1
    1204     1161     1184 1
    1205     1161     1245 1
    1206     1162     1163 1
    1207     1162     1166 1
    1208     1163     1164 1
    1209     1163     1167 1
    1210     1164     1165 1
    1211     1165     1166 1
    1212     1166     1172 1
    1213     1167     1168 1
    1214     1167     1171 1
    1215     1168     1169 1
    1216     1169     1170 1
    1217     1169     1173 1
    1218     1170     1171 1
    1219     1170     1176 1
    1220     1174     1175 1
    1221     1174     1182 1
    1222     1175     1176 1
    1223     1175     1183 1
    1224     1176     1177 1
    1225     1177     1178 1
    1226     1177     1181 1
    1227     1178     1179 1
    1228     1179     1180 1
    1229     1180     1181 1
    1230     1181     1182 1
    1231     1182     1310 1
    1232     1184     1185 1
    1233     1184     1204 1
    1234     1184     1205 1
    1235     1185     1186 1
    1236     1185     1196 1
    1237     1185     1206 1
    1238     1186     1187 1
    1239     1186     1207 1
    1240     1186     1208 1
    1241     1187     1188 1
    1242     1187     1209 1
    1243     1187     1210 1
    1244     1188     1189 1
    1245     1188     1211 1
    1246     1188     1212 1
    1247     1189     1190 1
    1248     1189     1213 1
    1249     1189     1214 1
    1250     1190     1191 1
    1251     1190     1215 1
    1252     1190     1216 1
    1253     1191     1192 1
    1254     1191     1217 1
    1255     1191     1218 1
    1256     1192     1193 1
    1257     1192     1219 1
    1258     1192     1220 1
    1259     1193     1194 1
    1260     1193     1221 1
    1261     1193     1222 1
    1262     1194     1195 1
    1263     1194     1223 1
    1264     1194     1224 1
    1265     1195     1225 1
    1266     1195     1226 1
    1267     1195     1227 1
    1268     1196     1197 1
    1269     1196     1228 1
    1270     1196     1229 1
    1271     1197     1198 1
    1272     1197     1230 1
    1273     1197     1231 1
    1274     1198     1199 1
    1275     1198     1232 1
    1276     1198     1233 1
    1277     1199     1200 1
    1278     1199     1234 1
    1279     1199     1235 1
    1280     1200     1201 1
    1281     1200     1236 1
    1282     1200     1237 1
    1283     1201     1202 1
    1284     1201     1238 1
    1285     1201     1239 1
    1286     1202     1203 1
    1287     1202     1240 1
    1288     1202     1241 1
    1289     1203     1242 1
    1290     1203     1243 1
    1291     1203     1244 1
    1292     1245     1246 1
    1293     1245     1265 1
    1294     1245     1266 1
    1295     1246     1247 1
    1296     1246     1257 1
    1297     1246     1267 1
    1298     1247     1248 1
    1299     1247     1268 1
    1300     1247     1269 1
    1301     1248     1249 1
    1302     1248     1270 1
    1303     1248     1271 1
    1304     1249     1250 1
    1305     1249     1272 1
    1306     1249     1273 1
    1307     1250     1251 1
    1308     1250     1274 1
    1309     1250     1275 1
    1310     1251     1252 1
    1311     1251     1276 1
    1312     1251     1277 1
    1313     1252     1253 1
    1314     1252     1278 1
    1315     1252     1279 1
    1316     1253     1254 1
    1317     1253     1280 1
    1318     1253     1281 1
    1319     1254     1255 1
    1320     1254     1282 1
    1321     1254     1283 1
    1322     1255     1256 1
    1323     1255     1284 1
    1324     1255     1285 1
    1325     1256     1286 1
    1326     1256     1287 1
    1327     1256     1288 1
    1328     1257     1258 1
    1329     1257     1289 1
    1330     1257     1290 1
    1331     1258     1259 1
    1332     1258     1291 1
    1333     1258     1292 1
    1334     1259     1260 1
    1335     1259     1293 1
    1336     1259     1294 1
    1337     1260     1261 1
    1338     1260     1295 1
    1339     1260     1296 1
    1340     1261     1262 1
    1341     1261     1297 1
    1342     1261     1298 1
    1343     1262     1263 1
    1344     1262     1299 1
    1345     1262     1300 1
    1346     1263     1264 1
    1347     1263     1301 1
    1348     1263     1302 1
    1349     1264     1303 1
    1350     1264     1304 1
    1351     1264     1305 1
    1352     1306     1307 1
    1353     1306     1313 1
    1354     1306     1329 1
    1355     1306     1390 1
    1356     1307     1308 1
    1357     1307     1311 1
    1358     1308     1309 1
    1359     1308     1312 1
    1360     1309     1310 1
    1361     1310     1311 1
    1362     1311     1317 1
    1363     1312     1313 1
    1364     1312     1316 1
    1365     1313     1314 1
    1366     1314     1315 1
    1367     1314     1318 1
    1368     1315     1316 1
    1369     1315     1321 1
    1370     1319     1320 1
    1371     1319     1327 1
    1372     1320     1321 1
    1373     1320     1328 1
    1374     1321     1322 1
    1375     1322     1323 1
    1376     1322     1326 1
    1377     1323     1324 1
    1378     1324     1325 1
    1379     1325     1326 1
    1380     1326     1327 1
    1381     1327     1455 1
    1382     1329     1330 1
    1383     1329     1349 1
    1384     1329     1350 1
    1385     1330     1331 1
    1386     1330     1341 1
    1387     1330     1351 1
    1388     1331     1332 1
    1389     1331     1352 1
    1390     1331     1353 1
    1391     1332     1333 1
    1392     1332     1354 1
    1393     1332     1355 1
    1394     1333     1334 1
    1395     1333     1356 1
    1396     1333     1357 1
    1397     1334     1335 1
    1398     1334     1358 1
    1399     1334     1359 1
    1400     1335     1336 1
    1401     1335     1360 1
    1402     1335     1361 1
    1403     1336     1337 1
    1404     1336     1362 1
    1405     1336     1363 1
    1406     1337     1338 1
    1407     1337     1364 1
    1408     1337     1365 1
    1409     1338     1339 1
    1410     1338     1366 1
    1411     1338     1367 1
    1412     1339     1340 1
    1413     1339     1368 1
    1414     1339     1369 1
    1415     1340     1370 1
    1416     1340     1371 1
    1417     1340     1372 1
    1418     1341     1342 1
    1419     1341     1373 1
    1420     1341     1374 1
    1421     1342     1343 1
    1422     1342     1375 1
    1423     1342     1376 1
    1424     1343     1344 1
    1425     1343     1377 1
    1426     1343     1378 1
    1427     1344     1345 1
    1428     1344     1379 1
    1429     1344     1380 1
    1430     1345     1346 1
    1431     1345     1381 1
    1432     1345     1382 1
    1433     1346     1347 1
    1434     1346     1383 1
    1435     1346     1384 1
    1436     1347     1348 1
    1437     1347     1385 1
    1438     1347     1386 1
    1439     1348     1387 1
    1440     1348     1388 1
    1441     1348     1389 1
    1442     1390     1391 1
    1443     1390     1410 1
    1444     1390     1411 1
    1445     1391     1392 1
    1446     1391     1402 1
    1447     1391     1412 1
    1448     1392     1393 1
    1449     1392     1413 1
    1450     1392     1414 1
    1451     1393     1394 1
    1452     1393     1415 1
    1453     1393     1416 1
    1454     1394     1395 1
    1455     1394     1417 1
    1456     1394     1418 1
    1457     1395     1396 1
    1458     1395     1419 1
    1459     1395     1420 1
    1460     1396     1397 1
    1461     1396     1421 1
    1462     1396     1422 1
    1463     1397     1398 1
    1464     1397     1423 1
    1465     1397     1424 1
    1466     1398     1399 1
    1467     1398     1425 1
    1468     1398     1426 1
    1469     1399     1400 1
    1470     1399     1427 1
    1471     1399     1428 1
    1472     1400     1401 1
    1473     1400     1429 1
    1474     1400     1430 1
    1475     1401     1431 1
    1476     1401     1432 1
    1477     1401     1433 1
    1478     1402     1403 1
    1479     1402     1434 1
    1480     1402     1435 1
    1481     1403     1404 1
    1482     1403     1436 1
    1483     1403     1437 1
    1484     1404     1405 1
    1485     1404     1438 1
    1486     1404     1439 1
    1487     1405     1406 1
    1488     1405     1440 1
    1489     1405     1441 1
    1490     1406     1407 1
    1491     1406     1442 1
    1492     1406     1443 1
    1493     1407     1408 1
    1494     1407     1444 1
    1495     1407     1445 1
    1496     1408     1409 1
    1497     1408     1446 1
    1498     1408     1447 1
    1499     1409     1448 1
    1500     1409     1449 1
    1501     1409     1450 1
    1502     1451     1452 1
    1503     1451     1458 1
    1504     1451     1474 1
    1505     1451     1535 1
    1506     1452     1453 1
    1507     1452     1456 1
    1508     1453     1454 1
    1509     1453     1457 1
    1510     1454     1455 1
    1511     1455     1456 1
    1512     1456     1462 1
    1513     1457     1458 1
    1514     1457     1461 1
    1515     1458     1459 1
    1516     1459     1460 1
    1517     1459     1463 1
    1518     1460     1461 1
    1519     1460     1466 1
    1520     1464     1465 1
    1521     1464     1472 1
    1522     1465     1466 1
    1523     1465     1473 1
    1524     1466     1467 1
    1525     1467     1468 1
    1526     1467     1471 1
    1527     1468     1469 1
    1528     1469     1470 1
    1529     1470     1471 1
    1530     1471     1472 1
    1531     1472     1600 1
    1532     1474     1475 1
    1533     1474     1494 1
    1534     1474     1495 1
    1535     1475     1476 1
    1536     1475     1486 1
    1537     1475     1496 1
    1538     1476     1477 1
    1539     1476     1497 1
    1540     1476     1498 1
    1541     1477     1478 1
    1542     1477     1499 1
    1543     1477     1500 1
    1544     1478     1479 1
    1545     1478     1501 1
    1546     1478     1502 1
    1547     1479     1480 1
    1548     1479     1503 1
    1549     1479     1504 1
    1550     1480     1481 1
    1551     1480     1505 1
    1552     1480     1506 1
    1553     1481     1482 1
    1554     1481     1507 1
    1555     1481     1508 1
    1556     1482     1483 1
    1557     1482     1509 1
    1558     1482     1510 1
    1559     1483     1484 1
    1560     1483     1511 1
    1561     1483     1512 1
    1562     1484     1485 1
    1563     1484     1513 1
    1564     1484     1514 1
    1565     1485     1515 1
    1566     1485     1516 1
    1567     1485     1517 1
    1568     1486     1487 1
    1569     1486     1518 1
    1570     1486     1519 1
    1571     1487     1488 1
    1572     1487     1520 1
    1573     1487     1521 1
    1574     1488     1489 1
    1575     1488     1522 1
    1576     1488     1523 1
    1577     1489     1490 1
    1578     1489     1524 1
    1579     1489     1525 1
    1580     1490     1491 1
    1581     1490     1526 1
    1582     1490     1527 1
    1583     1491     1492 1
    1584     1491     1528 1
    1585     1491     1529 1
    1586     1492     1493 1
    1587     1492     1530 1
    1588     1492     1531 1
    1589     1493     1532 1
    1590     1493     1533 1
    1591     1493     1534 1
    1592     1535     1536 1
    1593     1535     1555 1
    1594     1535     1556 1
    1595     1536     1537 1
    1596     1536     1547 1
    1597     1536     1557 1
    1598     1537     1538 1
    1599     1537     1558 1
    1600     1537     1559 1
    1601     1538     1539 1
    1602     1538     1560 1
    1603     1538     1561 1
    1604     1539     1540 1
    1605     1539     1562 1
    1606     1539     1563 1
    1607     1540     1541 1
    1608     1540     1564 1
    1609     1540     1565 1
    1610     1541     1542 1
    1611     1541     1566 1
    1612     1541     1567 1
    1613     1542     1543 1
    1614     1542     1568 1
    1615     1542     1569 1
    1616     1543     1544 1
    1617     1543     1570 1
    1618     1543     1571 1
    1619     1544     1545 1
    1620     1544     1572 1
    1621     1544     1573 1
    1622     1545     1546 1
    1623     1545     1574 1
    1624     1545     1575 1
    1625     1546     1576 1
    1626     1546     1577 1
    1627     1546     1578 1
    1628     1547     1548 1
    1629     1547     1579 1
    1630     1547     1580 1
    1631     1548     1549 1
    1632     1548     1581 1
    1633     1548     1582 1
    1634     1549     1550 1
    1635     1549     1583 1
    1636     1549     1584 1
    1637     1550     1551 1
    1638     1550     1585 1
    1639     1550     1586 1
    1640     1551     1552 1
    1641     1551     1587 1
    1642     1551     1588 1
    1643     1552     1553 1
    1644     1552     1589 1
    1645     1552     1590 1
    1646     1553     1554 1
    1647     1553     1591 1
    1648     1553     1592 1
    1649     1554     1593 1
    1650     1554     1594 1
    1651     1554     1595 1
    1652     1596     1597 1
    1653     1596     1603 1
    1654     1596     1619 1
    1655     1596     1680 1
    1656     1597     1598 1
    1657     1597     1601 1
    1658     1598     1599 1
    1659     1598     1602 1
    1660     1599     1600 1
    1661     1600     1601 1
    1662     1601     1607 1
    1663     1602     1603 1
    1664     1602     1606 1
    1665     1603     1604 1
    1666     1604     1605 1
    1667     1604     1608 1
    1668     1605     1606 1
    1669     1605     1611 1
    1670     1609     1610 1
    1671     1609     1617 1
    1672     1610     1611 1
    1673     1610     1618 1
    1674     1611     1612 1
    1675     1612     1613 1
    1676     1612     1616 1
    1677     1613     1614 1
    1678     1614     1615 1
    1679     1615     1616 1
    1680     1616     1617 1
    1681     1617     1745 1
    1682     1619     1620 1
    1683     1619     1639 1
    1684     1619     1640 1
    1685     1620     1621 1
    1686     1620     1631 1
    1687     1620     1641 1
    1688     1621     1622 1
    1689     1621     1642 1
    1690     1621     1643 1
    1691     1622     1623 1
    1692     1622     1644 1
    1693     1622     1645 1
    1694     1623     1624 1
    1695     1623     1646 1
    1696     1623     1647 1
    1697     1624     1625 1
    1698     1624     1648 1
    1699     1624     1649 1
    1700     1625     1626 1
    1701     1625     1650 1
    1702     1625     1651 1
    1703     1626     1627 1
    1704     1626     1652 1
    1705     1626     1653 1
    1706     1627     1628 1
    1707     1627     1654 1
    1708     1627     1655 1
    1709     1628     1629 1
    1710     1628     1656 1
    1711     1628     1657 1
    1712     1629     1630 1
    1713     1629     1658 1
    1714     1629     1659 1
    1715     1630     1660 1
    1716     1630     1661 1
    1717     1630     1662 1
    1718     1631     1632 1
    1719     1631     1663 1
    1720     1631     1664 1
    1721     1632     1633 1
    1722     1632     1665 1
    1723     1632     1666 1
    1724     1633     1634 1
    1725     1633     1667 1
    1726     1633     1668 1
    1727     1634     1635 1
    1728     1634     1669 1
    1729     1634     1670 1
    1730     1635     1636 1
    1731     1635     1671 1
    1732     1635     1672 1
    1733     1636     1637 1
    1734     1636     1673 1
    1735     1636     1674 1
    1736     1637     1638 1
    1737     1637     1675 1
    1738     1637     1676 1
    1739     1638     1677 1
    1740     1638     1678 1
    1741     1638     1679 1
    1742     1680     1681 1
    1743     1680     1700 1
    1744     1680     1701 1
    1745     1681     1682 1
    1746     1681     1692 1
    1747     1681     1702 1
    1748     1682     1683 1
    1749     1682     1703 1
    1750     1682     1704 1
    1751     1683     1684 1
    1752     1683     1705 1
    1753     1683     1706 1
    1754     1684     1685 1
    1755     1684     1707 1
    1756     1684     1708 1
    1757     1685     1686 1
    1758     1685     1709 1
    1759     1685     1710 1
    1760     1686     1687 1
    1761     1686     1711 1
    1762     1686     1712 1
    1763     1687     1688 1
    1764     1687     1713 1
    1765     1687     1714 1
    1766     1688     1689 1
    1767     1688     1715 1
    1768     1688     1716 1
    1769     1689     1690 1
    1770     1689     1717 1
    1771     1689     1718 1
    1772     1690     1691 1
    1773     1690     1719 1
    1774     1690     1720 1
    1775     1691     1721 1
    1776     1691     1722 1
    1777     1691     1723 1
    1778     1692     1693 1
    1779     1692     1724 1
    1780     1692     1725 1
    1781     1693     1694 1
    1782     1693     1726 1
    1783     1693     1727 1
    1784     1694     1695 1
    1785     1694     1728 1
    1786     1694     1729 1
    1787     1695     1696 1
    1788     1695     1730 1
    1789     1695     1731 1
    1790     1696     1697 1
    1791     1696     1732 1
    1792     1696     1733 1
    1793     1697     1698 1
    1794     1697     1734 1
    1795     1697     1735 1
    1796     1698     1699 1
    1797     1698     1736 1
    1798     1698     1737 1
    1799     1699     1738 1
    1800     1699     1739 1
    1801     1699     1740 1
    1802     1741     1742 1
    1803     1741     1748 1
    1804     1741     1764 1
    1805     1741     1825 1
    1806     1742     1743 1
    1807     1742     1746 1
    1808     1743     1744 1
    1809     1743     1747 1
    1810     1744     1745 1
    1811     1745     1746 1
    1812     1746     1752 1
    1813     1747     1748 1
    1814     1747     1751 1
    1815     1748     1749 1
    1816     1749     1750 1
    1817     1749     1753 1
    1818     1750     1751 1
    1819     1750     1756 1
    1820     1754     1755 1
    1821     1754     1762 1
    1822     1755     1756 1
    1823     1755     1763 1
    1824     1756     1757 1
    1825     1757     1758 1
    1826     1757     1761 1
    1827     1758     1759 1
    1828     1759     1760 1
    1829     1760     1761 1
    1830     1761     1762 1
    1831     1762     1890 1
    1832     1764     1765 1
    1833     1764     1784 1
    1834     1764     1785 1
    1835     1765     1766 1
    1836     1765     1776 1
    1837     1765     1786 1
    1838     1766     1767 1
    1839     1766     1787 1
    1840     1766     1788 1
    1841     1767     1768 1
    1842     1767     1789 1
    1843     1767     1790 1
    1844     1768     1769 1
    1845     1768     1791 1
    1846     1768     1792 1
    1847     1769     1770 1
    1848     1769     1793 1
    1849     1769     1794 1
    1850     1770     1771 1
    1851     1770     1795 1
    1852     1770     1796 1
    1853     1771     1772 1
    1854     1771     1797 1
    1855     1771     1798 1
    1856     1772     1773 1
    1857     1772     1799 1
    1858     1772     1800 1
    1859     1773     1774 1
    1860     1773     1801 1
    1861     1773     1802 1
    1862     1774     1775 1
    1863     1774     1803 1
    1864     1774     1804 1
    1865     1775     1805 1
    1866     1775     1806 1
    1867     1775     1807 1
    1868     1776     1777 1
    1869     1776     1808 1
    1870     1776     1809 1
    1871     1777     1778 1
    1872     1777     1810 1
    1873     1777     1811 1
    1874     1778     1779 1
    1875     1778     1812 1
    1876     1778     1813 1
    1877     1779     1780 1
    1878     1779     1814 1
    1879     1779     1815 1
    1880     1780     1781 1
    1881     1780     1816 1
    1882     1780     1817 1
    1883     1781     1782 1
    1884     1781     1818 1
    1885     1781     1819 1
    1886     1782     1783 1
    1887     1782     1820 1
    1888     1782     1821 1
    1889     1783     1822 1
    1890     1783     1823 1
    1891     1783     1824 1
    1892     1825     1826 1
    1893     1825     1845 1
    1894     1825     1846 1
    1895     1826     1827 1
    1896     1826     1837 1
    1897     1826     1847 1
    1898     1827     1828 1
    1899     1827     1848 1
    1900     1827     1849 1
    1901     1828     1829 1
    1902     1828     1850 1
    1903     1828     1851 1
    1904     1829     1830 1
    1905     1829     1852 1
    1906     1829     1853 1
    1907     1830     1831 1
    1908     1830     1854 1
    1909     1830     1855 1
    1910     1831     1832 1
    1911     1831     1856 1
    1912     1831     1857 1
    1913     1832     1833 1
    1914     1832     1858 1
    1915     1832     1859 1
    1916     1833     1834 1
    1917     1833     1860 1
    1918     1833     1861 1
    1919     1834     1835 1
    1920     1834     1862 1
    1921     1834     1863 1
    1922     1835     1836 1
    1923     1835     1864 1
    1924     1835     1865 1
    1925     1836     1866 1
    1926     1836     1867 1
    1927     1836     1868 1
    1928     1837     1838 1
    1929     1837     1869 1
    1930     1837     1870 1
    1931     1838     1839 1
    1932     1838     1871 1
    1933     1838     1872 1
    1934     1839     1840 1
    1935     1839     1873 1
    1936     1839     1874 1
    1937     1840     1841 1
    1938     1840     1875 1
    1939     1840     1876 1
    1940     1841     1842 1
    1941     1841     1877 1
    1942     1841     1878 1
    1943     1842     1843 1
    1944     1842     1879 1
    1945     1842     1880 1
    1946     1843     1844 1
    1947     1843     1881 1
    1948     1843     1882 1
    1949     1844     1883 1
    1950     1844     1884 1
    1951     1844     1885 1
    1952     1886     1887 1
    1953     1886     1893 1
    1954     1886     1909 1
    1955     1886     1970 1
    1956     1887     1888 1
    1957     1887     1891 1
    1958     1888     1889 1
    1959     1888     1892 1
    1960     1889     1890 1
    1961     1890     1891 1
    1962     1891     1897 1
    1963     1892     1893 1
    1964     1892     1896 1
    1965     1893     1894 1
    1966     1894     1895 1
    1967     1894     1898 1
    1968     1895     1896 1
    1969     1895     1901 1
    1970     1899     1900 1
    1971     1899     1907 1
    1972     1900     1901 1
    1973     1900     1908 1
    1974     1901     1902 1
    1975     1902     1903 1
    1976     1902     1906 1
    1977     1903     1904 1
    1978     1904     1905 1
    1979     1905     1906 1
    1980     1906     1907 1
    1981     1907     2035 1
    1982     1909     1910 1
    1983     1909     1929 1
    1984     1909     1930 1
    1985     1910     1911 1
    1986     1910     1921 1
    1987     1910     1931 1
    1988     1911     1912 1
    1989     1911     1932 1
    1990     1911     1933 1
    1991     1912     1913 1
    1992     1912     1934 1
    1993     1912     1935 1
    1994     1913     1914 1
    1995     1913     1936 1
    1996     1913     1937 1
    1997     1914     1915 1
    1998     1914     1938 1
    1999     1914     1939 1
    2000     1915     1916 1
    2001     1915     1940 1
    2002     1915     1941 1
    2003     1916     1917 1
    2004     1916     1942 1
    2005     1916     1943 1
    2006     1917     1918 1
    2007     1917     1944 1
    2008     1917     1945 1
    2009     1918     1919 1
    2010     1918     1946 1
    2011     1918     1947 1
    2012     1919     1920 1
    2013     1919     1948 1
    2014     1919     1949 1
    2015     1920     1950 1
    2016     1920     1951 1
    2017     1920     1952 1
    2018     1921     1922 1
    2019     1921     1953 1
    2020     1921     1954 1
    2021     1922     1923 1
    2022     1922     1955 1
    2023     1922     1956 1
    2024     1923     1924 1
    2025     1923     1957 1
    2026     1923     1958 1
    2027     1924     1925 1
    2028     1924     1959 1
    2029     1924     1960 1
    2030     1925     1926 1
    2031     1925     1961 1
    2032     1925     1962 1
    2033     1926     1927 1
    2034     1926     1963 1
    2035     1926     1964 1
    2036     1927     1928 1
    2037     1927     1965 1
    2038     1927     1966 1
    2039     1928     1967 1
    2040     1928     1968 1
    2041     1928     1969 1
    2042     1970     1971 1
    2043     1970     1990 1
    2044     1970     1991 1
    2045     1971     1972 1
    2046     1971     1982 1
    2047     1971     1992 1
    2048     1972     1973 1
    2049     1972     1993 1
    2050     1972     1994 1
    2051     1973     1974 1
    2052     1973     1995 1
    2053     1973     1996 1
    2054     1974     1975 1
    2055     1974     1997 1
    2056     1974     1998 1
    2057     1975     1976 1
    2058     1975     1999 1
    2059     1975     2000 1
    2060     1976     1977 1
    2061     1976     2001 1
    2062     1976     2002 1
    2063     1977     1978 1
    2064     1977     2003 1
    2065     1977     2004 1
    2066     1978     1979 1
    2067     1978     2005 1
    2068     1978     2006 1
    2069     1979     1980 1
    2070     1979     2007 1
    2071     1979     2008 1
    2072     1980     1981 1
    2073     1980     2009 1
    2074     1980     2010 1
    2075     1981     2011 1
    2076     1981     2012 1
    2077     1981     2013 1
    2078     1982     1983 1
    2079     1982     2014 1
    2080     1982     2015 1
    2081     1983     1984 1
    2082     1983     2016 1
    2083     1983     2017 1
    2084     1984     1985 1
    2085     1984     2018 1
    2086     1984     2019 1
    2087     1985     1986 1
    2088     1985     2020 1
    2089     1985     2021 1
    2090     1986     1987 1
    2091     1986     2022 1
    2092     1986     2023 1
    2093     1987     1988 1
    2094     1987     2024 1
    2095     1987     2025 1
    2096     1988     1989 1
    2097     1988     2026 1
    2098     1988     2027 1
    2099     1989     2028 1
    2100     1989     2029 1
    2101     1989     2030 1
    2102     2031     2032 1
    2103     2031     2038 1
    2104     2031     2054 1
    2105     2031     2115 1
    2106     2032     2033 1
    2107     2032     2036 1
    2108     2033     2034 1
    2109     2033     2037 1
    2110     2034     2035 1
    2111     2035     2036 1
    2112     2036     2042 1
    2113     2037     2038 1
    2114     2037     2041 1
    2115     2038     2039 1
    2116     2039     2040 1
    2117     2039     2043 1
    2118     2040     2041 1
    2119     2040     2046 1
    2120     2044     2045 1
    2121     2044     2052 1
    2122     2045     2046 1
    2123     2045     2053 1
    2124     2046     2047 1
    2125     2047     2048 1
    2126     2047     2051 1
    2127     2048     2049 1
    2128     2049     2050 1
    2129     2050     2051 1
    2130     2051     2052 1
    2131     2052     2180 1
    2132     2054     2055 1
    2133     2054     2074 1
    2134     2054     2075 1
    2135     2055     2056 1
    2136     2055     2066 1
    2137     2055     2076 1
    2138     2056     2057 1
    2139     2056     2077 1
    2140     2056     2078 1
    2141     2057     2058 1
    2142     2057     2079 1
    2143     2057     2080 1
    2144     2058     2059 1
    2145     2058     2081 1
    2146     2058     2082 1
    2147     2059     2060 1
    2148     2059     2083 1
    2149     2059     2084 1
    2150     2060     2061 1
    2151     2060     2085 1
    2152     2060     2086 1
    2153     2061     2062 1
    2154     2061     2087 1
    2155     2061     2088 1
    2156     2062     2063 1
    2157     2062     2089 1
    2158     2062     2090 1
    2159     2063     2064 1
    2160     2063     2091 1
    2161     2063     2092 1
    2162     2064     2065 1
    2163     2064     2093 1
    2164     2064     2094 1
    2165     2065     2095 1
    2166     2065     2096 1
    2167     2065     2097 1
    2168     2066     2067 1
    2169     2066     2098 1
    2170     2066     2099 1
    2171     2067     2068 1
    2172     2067     2100 1
    2173     2067     2101 1
    2174     2068     2069 1
    2175     2068     2102 1
    2176     2068     2103 1
    2177     2069     2070 1
    2178     2069     2104 1
    2179     2069     2105 1
    2180     2070     2071 1
    2181     2070     2106 1
    2182     2070     2107 1
    2183     2071     2072 1
    2184     2071     2108 1
    2185     2071     2109 1
    2186     2072     2073 1
    2187     2072     2110 1
    2188     2072     2111 1
    2189     2073     2112 1
    2190     2073     2113 1
    2191     2073     2114 1
    2192     2115     2116 1
    2193     2115     2135 1
    2194     2115     2136 1
    2195     2116     2117 1
    2196     2116     2127 1
    2197     2116     2137 1
    2198     2117     2118 1
    2199     2117     2138 1
    2200     2117     2139 1
    2201     2118     2119 1
    2202     2118     2140 1
    2203     2118     2141 1
    2204     2119     2120 1
    2205     2119     2142 1
    2206     2119     2143 1
    2207     2120     2121 1
    2208     2120     2144 1
    2209     2120     2145 1
    2210     2121     2122 1
    2211     2121     2146 1
    2212     2121     2147 1
    2213     2122     2123 1
    2214     2122     2148 1
    2215     2122     2149 1
    2216     2123     2124 1
    2217     2123     2150 1
    2218     2123     2151 1
    2219     2124     2125 1
    2220     2124     2152 1
    2221     2124     2153 1
    2222     2125     2126 1
    2223     2125     2154 1
    2224     2125     2155 1
    2225     2126     2156 1
    2226     2126     2157 1
    2227     2126     2158 1
    2228     2127     2128 1
    2229     2127     2159 1
    2230     2127     2160 1
    2231     2128     2129 1
    2232     2128     2161 1
    2233     2128     2162 1
    2234     2129     2130 1
    2235     2129     2163 1
    2236     2129     2164 1
    2237     2130     2131 1
    2238     2130     2165 1
    2239     2130     2166 1
    2240     2131     2132 1
    2241     2131     2167 1
    2242     2131     2168 1
    2243     2132     2133 1
    2244     2132     2169 1
    2245     2132     2170 1
    2246     2133     2134 1
    2247     2133     2171 1
    2248     2133     2172 1
    2249     2134     2173 1
    2250     2134     2174 1
    2251     2134     2175 1
    2252     2176     2177 1
    2253     2176     2183 1
    2254     2176     2199 1
    2255     2176     2260 1
    2256     2177     2178 1
    2257     2177     2181 1
    2258     2178     2179 1
    2259     2178     2182 1
    2260     2179     2180 1
    2261     2180     2181 1
    2262     2181     2187 1
    2263     2182     2183 1
    2264     2182     2186 1
    2265     2183     2184 1
    2266     2184     2185 1
    2267     2184     2188 1
    2268     2185     2186 1
    2269     2185     2191 1
    2270     2189     2190 1
    2271     2189     2197 1
    2272     2190     2191 1
    2273     2190     2198 1
    2274     2191     2192 1
    2275     2192     2193 1
    2276     2192     2196 1
    2277     2193     2194 1
    2278     2194     2195 1
    2279     2195     2196 1
    2280     2196     2197 1
    2281     2197     2325 1
    2282     2199     2200 1
    2283     2199     2219 1
    2284     2199     2220 1
    2285     2200     2201 1
    2286     2200     2211 1
    2287     2200     2221 1
    2288     2201     2202 1
    2289     2201     2222 1
    2290     2201     2223 1
    2291     2202     2203 1
    2292     2202     2224 1
    2293     2202     2225 1
    2294     2203     2204 1
    2295     2203     2226 1
    2296     2203     2227 1
    2297     2204     2205 1
    2298     2204     2228 1
    2299     2204     2229 1
    2300     2205     2206 1
    2301     2205     2230 1
    2302     2205     2231 1
    2303     2206     2207 1
    2304     2206     2232 1
    2305     2206     2233 1
    2306     2207     2208 1
    2307     2207     2234 1
    2308     2207     2235 1
    2309     2208     2209 1
    2310     2208     2236 1
    2311     2208     2237 1
    2312     2209     2210 1
    2313     2209     2238 1
    2314     2209     2239 1
    2315     2210     2240 1
    2316     2210     2241 1
    2317     2210     2242 1
    2318     2211     2212 1
    2319     2211     2243 1
    2320     2211     2244 1
    2321     2212     2213 1
    2322     2212     2245 1
    2323     2212     2246 1
    2324     2213     2214 1
    2325     2213     2247 1
    2326     2213     2248 1
    2327     2214     2215 1
    2328     2214     2249 1
    2329     2214     2250 1
    2330     2215     2216 1
    2331     2215     2251 1
    2332     2215     2252 1
    2333     2216     2217 1
    2334     2216     2253 1
    2335     2216     2254 1
    2336     2217     2218 1
    2337     2217     2255 1
    2338     2217     2256 1
    2339     2218     2257 1
    2340     2218     2258 1
    2341     2218     2259 1
    2342     2260     2261 1
    2343     2260     2280 1
    2344     2260     2281 1
    2345     2261     2262 1
    2346     2261     2272 1
    2347     2261     2282 1
    2348     2262     2263 1
    2349     2262     2283 1
    2350     2262     2284 1
    2351     2263     2264 1
    2352     2263     2285 1
    2353     2263     2286 1
    2354     2264     2265 1
    2355     2264     2287 1
    2356     2264     2288 1
    2357     2265     2266 1
    2358     2265     2289 1
    2359     2265     2290 1
    2360     2266     2267 1
    2361     2266     2291 1
    2362     2266     2292 1
    2363     2267     2268 1
    2364     2267     2293 1
    2365     2267     2294 1
    2366     2268     2269 1
    2367     2268     2295 1
    2368     2268     2296 1
    2369     2269     2270 1
    2370     2269     2297 1
    2371     2269     2298 1
    2372     2270     2271 1
    2373     2270     2299 1
    2374     2270     2300 1
    2375     2271     2301 1
    2376     2271     2302 1
    2377     2271     2303 1
    2378     2272     2273 1
    2379     2272     2304 1
    2380     2272     2305 1
    2381     2273     2274 1
    2382     2273     2306 1
    2383     2273     2307 1
    2384     2274     2275 1
    2385     2274     2308 1
    2386     2274     2309 1
    2387     2275     2276 1
    2388     2275     2310 1
    2389     2275     2311 1
    2390     2276     2277 1
    2391     2276     2312 1
    2392     2276     2313 1
    2393     2277     2278 1
    2394     2277     2314 1
    2395     2277     2315 1
    2396     2278     2279 1
    2397     2278     2316 1
    2398     2278     2317 1
    2399     2279     2318 1
    2400     2279     2319 1
    2401     2279     2320 1
    2402     2321     2322 1
    2403     2321     2328 1
    2404     2321     2344 1
    2405     2321     2405 1
    2406     2322     2323 1
    2407     2322     2326 1
    2408     2323     2324 1
    2409     2323     2327 1
    2410     2324     2325 1
    2411     2325     2326 1
    2412     2326     2332 1
    2413     2327     2328 1
    2414     2327     2331 1
    2415     2328     2329 1
    2416     2329     2330 1
    2417     2329     2333 1
    2418     2330     2331 1
    2419     2330     2336 1
    2420     2334     2335 1
    2421     2334     2342 1
    2422     2335     2336 1
    2423     2335     2343 1
    2424     2336     2337 1
    2425     2337     2338 1
    2426     2337     2341 1
    2427     2338     2339 1
    2428     2339     2340 1
    2429     2340     2341 1
    2430     2341     2342 1
    2431     2342     2470 1
    2432     2344     2345 1
    2433     2344     2364 1
    2434     2344     2365 1
    2435     2345     2346 1
    2436     2345     2356 1
    2437     2345     2366 1
    2438     2346     2347 1
    2439     2346     2367 1
    2440     2346     2368 1
    2441     2347     2348 1
    2442     2347     2369 1
    2443     2347     2370 1
    2444     2348     2349 1
    2445     2348     2371 1
    2446     2348     2372 1
    2447     2349     2350 1
    2448     2349     2373 1
    2449     2349     2374 1
    2450     2350     2351 1
    2451     2350     2375 1
    2452     2350     2376 1
    2453     2351     2352 1
    2454     2351     2377 1
    2455     2351     2378 1
    2456     2352     2353 1
    2457     2352     2379 1
    2458     2352     2380 1
    2459     2353     2354 1
    2460     2353     2381 1
    2461     2353     2382 1
    2462     2354     2355 1
    2463     2354     2383 1
    2464     2354     2384 1
    2465     2355     2385 1
    2466     2355     2386 1
    2467     2355     2387 1
    2468     2356     2357 1
    2469     2356     2388 1
    2470     2356     2389 1
    2471     2357     2358 1
    2472     2357     2390 1
    2473     2357     2391 1
    2474     2358     2359 1
    2475     2358     2392 1
    2476     2358     2393 1
    2477     2359     2360 1
    2478     2359     2394 1
    2479     2359     2395 1
    2480     2360     2361 1
    2481     2360     2396 1
    2482     2360     2397 1
    2483     2361     2362 1
    2484     2361     2398 1
    2485     2361     2399 1
    2486     2362     2363 1
    2487     2362     2400 1
    2488     2362     2401 1
    2489     2363     2402 1
    2490     2363     2403 1
    2491     2363     2404 1
    2492     2405     2406 1
    2493     2405     2425 1
    2494     2405     2426 1
    2495     2406     2407 1
    2496     2406     2417 1
    2497     2406     2427 1
    2498     2407     2408 1
    2499     2407     2428 1
    2500     2407     2429 1
    2501     2408     2409 1
    2502     2408     2430 1
    2503     2408     2431 1
    2504     2409     2410 1
    2505     2409     2432 1
    2506     2409     2433 1
    2507     2410     2411 1
    2508     2410     2434 1
    2509     2410     2435 1
    2510     2411     2412 1
    2511     2411     2436 1
    2512     2411     2437 1
    2513     2412     2413 1
    2514     2412     2438 1
    2515     2412     2439 1
    2516     2413     2414 1
    2517     2413     2440 1
    2518     2413     2441 1
    2519     2414     2415 1
    2520     2414     2442 1
    2521     2414     2443 1
    2522     2415     2416 1
    2523     2415     2444 1
    2524     2415     2445 1
    2525     2416     2446 1
    2526     2416     2447 1
    2527     2416     2448 1
    2528     2417     2418 1
    2529     2417     2449 1
    2530     2417     2450 1
    2531     2418     2419 1
    2532     2418     2451 1
    2533     2418     2452 1
    2534     2419     2420 1
    2535     2419     2453 1
    2536     2419     2454 1
    2537     2420     2421 1
    2538     2420     2455 1
    2539     2420     2456 1
    2540     2421     2422 1
    2541     2421     2457 1
    2542     2421     2458 1
    2543     2422     2423 1
    2544     2422     2459 1
    2545     2422     2460 1
    2546     2423     2424 1
    2547     2423     2461 1
    2548     2423     2462 1
    2549     2424     2463 1
    2550     2424     2464 1
    2551     2424     2465 1
    2552     2466     2467 1
    2553     2466     2473 1
    2554     2466     2489 1
    2555     2466     2550 1
    2556     2467     2468 1
    2557     2467     2471 1
    2558     2468     2469 1
    2559     2468     2472 1
    2560     2469     2470 1
    2561     2470     2471 1
    2562     2471     2477 1
    2563     2472     2473 1
    2564     2472     2476 1
    2565     2473     2474 1
    2566     2474     2475 1
    2567     2474     2478 1
    2568     2475     2476 1
    2569     2475     2481 1
    2570     2479     2480 1
    2571     2479     2487 1
    2572     2480     2481 1
    2573     2480     2488 1
    2574     2481     2482 1
    2575     2482     2483 1
    2576     2482     2486 1
    2577     2483     2484 1
    2578     2484     2485 1
    2579     2485     2486 1
    2580     2486     2487 1
    2581     2487     2615 1
    2582     2489     2490 1
    2583     2489     2509 1
    2584     2489     2510 1
    2585     2490     2491 1
    2586     2490     2501 1
    2587     2490     2511 1
    2588     2491     2492 1
    2589     2491     2512 1
    2590     2491     2513 1
    2591     2492     2493 1
    2592     2492     2514 1
    2593     2492     2515 1
    2594     2493     2494 1
    2595     2493     2516 1
    2596     2493     2517 1
    2597     2494     2495 1
    2598     2494     2518 1
    2599     2494     2519 1
    2600     2495     2496 1
    2601     2495     2520 1
    2602     2495     2521 1
    2603     2496     2497 1
    2604     2496     2522 1
    2605     2496     2523 1
    2606     2497     2498 1
    2607     2497     2524 1
    2608     2497     2525 1
    2609     2498     2499 1
    2610     2498     2526 1
    2611     2498     2527 1
    2612     2499     2500 1
    2613     2499     2528 1
    2614     2499     2529 1
    2615     2500     2530 1
    2616     2500     2531 1
    2617     2500     2532 1
    2618     2501     2502 1
    2619     2501     2533 1
    2620     2501     2534 1
    2621     2502     2503 1
    2622     2502     2535 1
    2623     2502     2536 1
    2624     2503     2504 1
    2625     2503     2537 1
    2626     2503     2538 1
    2627     2504     2505 1
    2628     2504     2539 1
    2629     2504     2540 1
    2630     2505     2506 1
    2631     2505     2541 1
    2632     2505     2542 1
    2633     2506     2507 1
    2634     2506     2543 1
    2635     2506     2544 1
    2636     2507     2508 1
    2637     2507     2545 1
    2638     2507     2546 1
    2639     2508     2547 1
    2640     2508     2548 1
    2641     2508     2549 1
    2642     2550     2551 1
    2643     2550     2570 1
    2644     2550     2571 1
    2645     2551     2552 1
    2646     2551     2562 1
    2647     2551     2572 1
    2648     2552     2553 1
    2649     2552     2573 1
    2650     2552     2574 1
    2651     2553     2554 1
    2652     2553     2575 1
    2653     2553     2576 1
    2654     2554     2555 1
    2655     2554     2577 1
    2656     2554     2578 1
    2657     2555     2556 1
    2658     2555     2579 1
    2659     2555     2580 1
    2660     2556     2557 1
    2661     2556     2581 1
    2662     2556     2582 1
    2663     2557     2558 1
    2664     2557     2583 1
    2665     2557     2584 1
    2666     2558     2559 1
    2667     2558     2585 1
    2668     2558     2586 1
    2669     2559     2560 1
    2670     2559     2587 1
    2671     2559     2588 1
    2672     2560     2561 1
    2673     2560     2589 1
    2674     2560     2590 1
    2675     2561     2591 1
    2676     2561     2592 1
    2677     2561     2593 1
    2678     2562     2563 1
    2679     2562     2594 1
    2680     2562     2595 1
    2681     2563     2564 1
    2682     2563     2596 1
    2683     2563     2597 1
    2684     2564     2565 1
    2685     2564     2598 1
    2686     2564     2599 1
    2687     2565     2566 1
    2688     2565     2600 1
    2689     2565     2601 1
    2690     2566     2567 1
    2691     2566     2602 1
    2692     2566     2603 1
    2693     2567     2568 1
    2694     2567     2604 1
    2695     2567     2605 1
    2696     2568     2569 1
    2697     2568     2606 1
    2698     2568     2607 1
    2699     2569     2608 1
    2700     2569     2609 1
    2701     2569     2610 1
    2702     2611     2612 1
    2703     2611     2618 1
    2704     2611     2634 1
    2705     2611     2695 1
    2706     2612     2613 1
    2707     2612     2616 1
    2708     2613     2614 1
    2709     2613     2617 1
    2710     2614     2615 1
    2711     2615     2616 1
    2712     2616     2622 1
    2713     2617     2618 1
    2714     2617     2621 1
    2715     2618     2619 1
    2716     2619     2620 1
    2717     2619     2623 1
    2718     2620     2621 1
    2719     2620     2626 1
    2720     2624     2625 1
    2721     2624     2632 1
    2722     2625     2626 1
    2723     2625     2633 1
    2724     2626     2627 1
    2725     2627     2628 1
    2726     2627     2631 1
    2727     2628     2629 1
    2728     2629     2630 1
    2729     2630     2631 1
    2730     2631     2632 1
    2731     2632     2760 1
    2732     2634     2635 1
    2733     2634     2654 1
    2734     2634     2655 1
    2735     2635     2636 1
    2736     2635     2646 1
    2737     2635     2656 1
    2738     2636     2637 1
    2739     2636     2657 1
    2740     2636     2658 1
    2741     2637     2638 1
    2742     2637     2659 1
    2743     2637     2660 1
    2744     2638     2639 1
    2745     2638     2661 1
    2746     2638     2662 1
    2747     2639     2640 1
    2748     2639     2663 1
    2749     2639     2664 1
    2750     2640     2641 1
    2751     2640     2665 1
    2752     2640     2666 1
    2753     2641     2642 1
    2754     2641     2667 1
    2755     2641     2668 1
    2756     2642     2643 1
    2757     2642     2669 1
    2758     2642     2670 1
    2759     2643     2644 1
    2760     2643     2671 1
    2761     2643     2672 1
    2762     2644     2645 1
    2763     2644     2673 1
    2764     2644     2674 1
    2765     2645     2675 1
    2766     2645     2676 1
    2767     2645     2677 1
    2768     2646     2647 1
    2769     2646     2678 1
    2770     2646     2679 1
    2771     2647     2648 1
    2772     2647     2680 1
    2773     2647     2681 1
    2774     2648     2649 1
    2775     2648     2682 1
    2776     2648     2683 1
    2777     2649     2650 1
    2778     2649     2684 1
    2779     2649     2685 1
    2780     2650     2651 1
    2781     2650     2686 1
    2782     2650     2687 1
    2783     2651     2652 1
    2784     2651     2688 1
    2785     2651     2689 1
    2786     2652     2653 1
    2787     2652     2690 1
    2788     2652     2691 1
    2789     2653     2692 1
    2790     2653     2693 1
    2791     2653     2694 1
    2792     2695     2696 1
    2793     2695     2715 1
    2794     2695     2716 1
    2795     2696     2697 1
    2796     2696     2707 1
    2797     2696     2717 1
    2798     2697     2698 1
    2799     2697     2718 1
    2800     2697     2719 1
    2801     2698     2699 1
    2802     2698     2720 1
    2803     2698     2721 1
    2804     2699     2700 1
    2805     2699     2722 1
    2806     2699     2723 1
    2807     2700     2701 1
    2808     2700     2724 1
    2809     2700     2725 1
    2810     2701     2702 1
    2811     2701     2726 1
    2812     2701     2727 1
    2813     2702     2703 1
    2814     2702     2728 1
    2815     2702     2729 1
    2816     2703     2704 1
    2817     2703     2730 1
    2818     2703     2731 1
    2819     2704     2705 1
    2820     2704     2732 1
    2821     2704     2733 1
    2822     2705     2706 1
    2823     2705     2734 1
    2824     2705     2735 1
    2825     2706     2736 1
    2826     2706     2737 1
    2827     2706     2738 1
    2828     2707     2708 1
    2829     2707     2739 1
    2830     2707     2740 1
    2831     2708     2709 1
    2832     2708     2741 1
    2833     2708     2742 1
    2834     2709     2710 1
    2835     2709     2743 1
    2836     2709     2744 1
    2837     2710     2711 1
    2838     2710     2745 1
    2839     2710     2746 1
    2840     2711     2712 1
    2841     2711     2747 1
    2842     2711     2748 1
    2843     2712     2713 1
    2844     2712     2749 1
    2845     2712     2750 1
    2846     2713     2714 1
    2847     2713     2751 1
    2848     2713     2752 1
    2849     2714     2753 1
    2850     2714     2754 1
    2851     2714     2755 1
    2852     2756     2757 1
    2853     2756     2763 1
    2854     2756     2779 1
    2855     2756     2840 1
    2856     2757     2758 1
    2857     2757     2761 1
    2858     2758     2759 1
    2859     2758     2762 1
    2860     2759     2760 1
    2861     2760     2761 1
    2862     2761     2767 1
    2863     2762     2763 1
    2864     2762     2766 1
    2865     2763     2764 1
    2866     2764     2765 1
    2867     2764     2768 1
    2868     2765     2766 1
    2869     2765     2771 1
    2870     2769     2770 1
    2871     2769     2777 1
    2872     2770     2771 1
    2873     2770     2778 1
    2874     2771     2772 1
    2875     2772     2773 1
    2876     2772     2776 1
    2877     2773     2774 1
    2878     2774     2775 1
    2879     2775     2776 1
    2880     2776     2777 1
    2881     2777     2905 1
    2882     2779     2780 1
    2883     2779     2799 1
    2884     2779     2800 1
    2885     2780     2781 1
    2886     2780     2791 1
    2887     2780     2801 1
    2888     2781     2782 1
    2889     2781     2802 1
    2890     2781     2803 1
    2891     2782     2783 1
    2892     2782     2804 1
    2893     2782     2805 1
    2894     2783     2784 1
    2895     2783     2806 1
    2896     2783     2807 1
    2897     2784     2785 1
    2898     2784     2808 1
    2899     2784     2809 1
    2900     2785     2786 1
    2901     2785     2810 1
    2902     2785     2811 1
    2903     2786     2787 1
    2904     2786     2812 1
    2905     2786     2813 1
    2906     2787     2788 1
    2907     2787     2814 1
    2908     2787     2815 1
    2909     2788     2789 1
    2910     2788     2816 1
    2911     2788     2817 1
    2912     2789     2790 1
    2913     2789     2818 1
    2914     2789     2819 1
    2915     2790     2820 1
    2916     2790     2821 1
    2917     2790     2822 1
    2918     2791     2792 1
    2919     2791     2823 1
    2920     2791     2824 1
    2921     2792     2793 1
    2922     2792     2825 1
    2923     2792     2826 1
    2924     2793     2794 1
    2925     2793     2827 1
    2926     2793     2828 1
    2927     2794     2795 1
    2928     2794     2829 1
    2929     2794     2830 1
    2930     2795     2796 1
    2931     2795     2831 1
    2932     2795     2832 1
    2933     2796     2797 1
    2934     2796     2833 1
    2935     2796     2834 1
    2936     2797     2798 1
    2937     2797     2835 1
    2938     2797     2836 1
    2939     2798     2837 1
    2940     2798     2838 1
    2941     2798     2839 1
    2942     2840     2841 1
    2943     2840     2860 1
    2944     2840     2861 1
    2945     2841     2842 1
    2946     2841     2852 1
    2947     2841     2862 1
    2948     2842     2843 1
    2949     2842     2863 1
    2950     2842     2864 1
    2951     2843     2844 1
    2952     2843     2865 1
    2953     2843     2866 1
    2954     2844     2845 1
    2955     2844     2867 1
    2956     2844     2868 1
    2957     2845     2846 1
    2958     2845     2869 1
    2959     2845     2870 1
    2960     2846     2847 1
    2961     2846     2871 1
    2962     2846     2872 1
    2963     2847     2848 1
    2964     2847     2873 1
    2965     2847     2874 1
    2966     2848     2849 1
    2967     2848     2875 1
    2968     2848     2876 1
    2969     2849     2850 1
    2970     2849     2877 1
    2971     2849     2878 1
    2972     2850     2851 1
    2973     2850     2879 1
    2974     2850     2880 1
    2975     2851     2881 1
    2976     2851     2882 1
    2977     2851     2883 1
    2978     2852     2853 1
    2979     2852     2884 1
    2980     2852     2885 1
    2981     2853     2854 1
    2982     2853     2886 1
    2983     2853     2887 1
    2984     2854     2855 1
    2985     2854     2888 1
    2986     2854     2889 1
    2987     2855     2856 1
    2988     2855     2890 1
    2989     2855     2891 1
    2990     2856     2857 1
    2991     2856     2892 1
    2992     2856     2893 1
    2993     2857     2858 1
    2994     2857     2894 1
    2995     2857     2895 1
    2996     2858     2859 1
    2997     2858     2896 1
    2998     2858     2897 1
    2999     2859     2898 1
    3000     2859     2899 1
    3001     2859     2900 1
    3002     2901     2902 1
    3003     2901     2908 1
    3004     2901     2924 1
    3005     2901     2985 1
    3006     2902     2903 1
    3007     2902     2906 1
    3008     2903     2904 1
    3009     2903     2907 1
    3010     2904     2905 1
    3011     2905     2906 1
    3012     2906     2912 1
    3013     2907     2908 1
    3014     2907     2911 1
    3015     2908     2909 1
    3016     2909     2910 1
    3017     2909     2913 1
    3018     2910     2911 1
    3019     2910     2916 1
    3020     2914     2915 1
    3021     2914     2922 1
    3022     2915     2916 1
    3023     2915     2923 1
    3024     2916     2917 1
    3025     2917     2918 1
    3026     2917     2921 1
    3027     2918     2919 1
    3028     2919     2920 1
    3029     2920     2921 1
    3030     2921     2922 1
    3031     2922     3050 1
    3032     2924     2925 1
    3033     2924     2944 1
    3034     2924     2945 1
    3035     2925     2926 1
    3036     2925     2936 1
    3037     2925     2946 1
    3038     2926     2927 1
    3039     2926     2947 1
    3040     2926     2948 1
    3041     2927     2928 1
    3042     2927     2949 1
    3043     2927     2950 1
    3044     2928     2929 1
    3045     2928     2951 1
    3046     2928     2952 1
    3047     2929     2930 1
    3048     2929     2953 1
    3049     2929     2954 1
    3050     2930     2931 1
    3051     2930     2955 1
    3052     2930     2956 1
    3053     2931     2932 1
    3054     2931     2957 1
    3055     2931     2958 1
    3056     2932     2933 1
    3057     2932     2959 1
    3058     2932     2960 1
    3059     2933     2934 1
    3060     2933     2961 1
    3061     2933     2962 1
    3062     2934     2935 1
    3063     2934     2963 1
    3064     2934     2964 1
    3065     2935     2965 1
    3066     2935     2966 1
    3067     2935     2967 1
    3068     2936     2937 1
    3069     2936     2968 1
    3070     2936     2969 1
    3071     2937     2938 1
    3072     2937     2970 1
    3073     2937     2971 1
    3074     2938     2939 1
    3075     2938     2972 1
    3076     2938     2973 1
    3077     2939     2940 1
    3078     2939     2974 1
    3079     2939     2975 1
    3080     2940     2941 1
    3081     2940     2976 1
    3082     2940     2977 1
    3083     2941     2942 1
    3084     2941     2978 1
    3085     2941     2979 1
    3086     2942     2943 1
    3087     2942     2980 1
    3088     2942     2981 1
    3089     2943     2982 1
    3090     2943     2983 1
    3091     2943     2984 1
    3092     2985     2986 1
    3093     2985     3005 1
    3094     2985     3006 1
    3095     2986     2987 1
    3096     2986     2997 1
    3097     2986     3007 1
    3098     2987     2988 1
    3099     2987     3008 1
    3100     2987     3009 1
    3101     2988     2989 1
    3102     2988     3010 1
    3103     2988     3011 1
    3104     2989     2990 1
    3105     2989     3012 1
    3106     2989     3013 1
    3107     2990     2991 1
    3108     2990     3014 1
    3109     2990     3015 1
    3110     2991     2992 1
    3111     2991     3016 1
    3112     2991     3017 1
    3113     2992     2993 1
    3114     2992     3018 1
    3115     2992     3019 1
    3116     2993     2994 1
    3117     2993     3020 1
    3118     2993     3021 1
    3119     2994     2995 1
    3120     2994     3022 1
    3121     2994     3023 1
    3122     2995     2996 1
    3123     2995     3024 1
    3124     2995     3025 1
    3125     2996     3026 1
    3126     2996     3027 1
    3127     2996     3028 1
    3128     2997     2998 1
    3129     2997     3029 1
    3130     2997     3030 1
    3131     2998     2999 1
    3132     2998     3031 1
    3133     2998     3032 1
    3134     2999     3000 1
    3135     2999     3033 1
    3136     2999     3034 1
    3137     3000     3001 1
    3138     3000     3035 1
    3139     3000     3036 1
    3140     3001     3002 1
    3141     3001     3037 1
    3142     3001     3038 1
    3143     3002     3003 1
    3144     3002     3039 1
    3145     3002     3040 1
    3146     3003     3004 1
    3147     3003     3041 1
    3148     3003     3042 1
    3149     3004     3043 1
    3150     3004     3044 1
    3151     3004     3045 1
    3152     3046     3047 1
    3153     3046     3053 1
    3154     3046     3069 1
    3155     3046     3130 1
    3156     3047     3048 1
    3157     3047     3051 1
    3158     3048     3049 1
    3159     3048     3052 1
    3160     3049     3050 1
    3161     3050     3051 1
    3162     3051     3057 1
    3163     3052     3053 1
    3164     3052     3056 1
    3165     3053     3054 1
    3166     3054     3055 1
    3167     3054     3058 1
    3168     3055     3056 1
    3169     3055     3061 1
    3170     3059     3060 1
    3171     3059     3067 1
    3172     3060     3061 1
    3173     3060     3068 1
    3174     3061     3062 1
    3175     3062     3063 1
    3176     3062     3066 1
    3177     3063     3064 1
    3178     3064     3065 1
    3179     3065     3066 1
    3180     3066     3067 1
    3181     3067     3195 1
    3182     3069     3070 1
    3183     3069     3089 1
    3184     3069     3090 1
    3185     3070     3071 1
    3186     3070     3081 1
    3187     3070     3091 1
    3188     3071     3072 1
    3189     3071     3092 1
    3190     3071     3093 1
    3191     3072     3073 1
    3192     3072     3094 1
    3193     3072     3095 1
    3194     3073     3074 1
    3195     3073     3096 1
    3196     3073     3097 1
    3197     3074     3075 1
    3198     3074     3098 1
    3199     3074     3099 1
    3200     3075     3076 1
    3201     3075     3100 1
    3202     3075     3101 1
    3203     3076     3077 1
    3204     3076     3102 1
    3205     3076     3103 1
    3206     3077     3078 1
    3207     3077     3104 1
    3208     3077     3105 1
    3209     3078     3079 1
    3210     3078     3106 1
    3211     3078     3107 1
    3212     3079     3080 1
    3213     3079     3108 1
    3214     3079     3109 1
    3215     3080     3110 1
    3216     3080     3111 1
    3217     3080     3112 1
    3218     3081     3082 1
    3219     3081     3113 1
    3220     3081     3114 1
    3221     3082     3083 1
    3222     3082     3115 1
    3223     3082     3116 1
    3224     3083     3084 1
    3225     3083     3117 1
    3226     3083     3118 1
    3227     3084     3085 1
    3228     3084     3119 1
    3229     3084     3120 1
    3230     3085     3086 1
    3231     3085     3121 1
    3232     3085     3122 1
    3233     3086     3087 1
    3234     3086     3123 1
    3235     3086     3124 1
    3236     3087     3088 1
    3237     3087     3125 1
    3238     3087     3126 1
    3239     3088     3127 1
    3240     3088     3128 1
    3241     3088     3129 1
    3242     3130     3131 1
    3243     3130     3150 1
    3244     3130     3151 1
    3245     3131     3132 1
    3246     3131     3142 1
    3247     3131     3152 1
    3248     3132     3133 1
    3249     3132     3153 1
    3250     3132     3154 1
    3251     3133     3134 1
    3252     3133     3155 1
    3253     3133     3156 1
    3254     3134     3135 1
    3255     3134     3157 1
    3256     3134     3158 1
    3257     3135     3136 1
    3258     3135     3159 1
    3259     3135     3160 1
    3260     3136     3137 1
    3261     3136     3161 1
    3262     3136     3162 1
    3263     3137     3138 1
    3264     3137     3163 1
    3265     3137     3164 1
    3266     3138     3139 1
    3267     3138     3165 1
    3268     3138     3166 1
    3269     3139     3140 1
    3270     3139     3167 1
    3271     3139     3168 1
    3272     3140     3141 1
    3273     3140     3169 1
    3274     3140     3170 1
    3275     3141     3171 1
    3276     3141     3172 1
    3277     3141     3173 1
    3278     3142     3143 1
    3279     3142     3174 1
    3280     3142     3175 1
    3281     3143     3144 1
    3282     3143     3176 1
    3283     3143     3177 1
    3284     3144     3145 1
    3285     3144     3178 1
    3286     3144     3179 1
    3287     3145     3146 1
    3288     3145     3180 1
    3289     3145     3181 1
    3290     3146     3147 1
    3291     3146     3182 1
    3292     3146     3183 1
    3293     3147     3148 1
    3294     3147     3184 1
    3295     3147     3185 1
    3296     3148     3149 1
    3297     3148     3186 1
    3298     3148     3187 1
    3299     3149     3188 1
    3300     3149     3189 1
    3301     3149     3190 1
    3302     3191     3192 1
    3303     3191     3198 1
    3304     3191     3214 1
    3305     3191     3275 1
    3306     3192     3193 1
    3307     3192     3196 1
    3308     3193     3194 1
    3309     3193     3197 1
    3310     3194     3195 1
    3311     3195     3196 1
    3312     3196     3202 1
    3313     3197     3198 1
    3314     3197     3201 1
    3315     3198     3199 1
    3316     3199     3200 1
    3317     3199     3203 1
    3318     3200     3201 1
    3319     3200     3206 1
    3320     3204     3205 1
    3321     3204     3212 1
    3322     3205     3206 1
    3323     3205     3213 1
    3324     3206     3207 1
    3325     3207     3208 1
    3326     3207     3211 1
    3327     3208     3209 1
    3328     3209     3210 1
    3329     3210     3211 1
    3330     3211     3212 1
    3331     3212     3340 1
    3332     3214     3215 1
    3333     3214     3234 1
    3334     3214     3235 1
    3335     3215     3216 1
    3336     3215     3226 1
    3337     3215     3236 1
    3338     3216     3217 1
    3339     3216     3237 1
    3340     3216     3238 1
    3341     3217     3218 1
    3342     3217     3239 1
    3343     3217     3240 1
    3344     3218     3219 1
    3345     3218     3241 1
    3346     3218     3242 1
    3347     3219     3220 1
    3348     3219     3243 1
    3349     3219     3244 1
    3350     3220     3221 1
    3351     3220     3245 1
    3352     3220     3246 1
    3353     3221     3222 1
    3354     3221     3247 1
    3355     3221     3248 1
    3356     3222     3223 1
    3357     3222     3249 1
    3358     3222     3250 1
    3359     3223     3224 1
    3360     3223     3251 1
    3361     3223     3252 1
    3362     3224     3225 1
    3363     3224     3253 1
    3364     3224     3254 1
    3365     3225     3255 1
    3366     3225     3256 1
    3367     3225     3257 1
    3368     3226     3227 1
    3369     3226     3258 1
    3370     3226     3259 1
    3371     3227     3228 1
    3372     3227     3260 1
    3373     3227     3261 1
    3374     3228     3229 1
    3375     3228     3262 1
    3376     3228     3263 1
    3377     3229     3230 1
    3378     3229     3264 1
    3379     3229     3265 1
    3380     3230     3231 1
    3381     3230     3266 1
    3382     3230     3267 1
    3383     3231     3232 1
    3384     3231     3268 1
    3385     3231     3269 1
    3386     3232     3233 1
    3387     3232     3270 1
    3388     3232     3271 1
    3389     3233     3272 1
    3390     3233     3273 1
    3391     3233     3274 1
    3392     3275     3276 1
    3393     3275     3295 1
    3394     3275     3296 1
    3395     3276     3277 1
    3396     3276     3287 1
    3397     3276     3297 1
    3398     3277     3278 1
    3399     3277     3298 1
    3400     3277     3299 1
    3401     3278     3279 1
    3402     3278     3300 1
    3403     3278     3301 1
    3404     3279     3280 1
    3405     3279     3302 1
    3406     3279     3303 1
    3407     3280     3281 1
    3408     3280     3304 1
    3409     3280     3305 1
    3410     3281     3282 1
    3411     3281     3306 1
    3412     3281     3307 1
    3413     3282     3283 1
    3414     3282     3308 1
    3415     3282     3309 1
    3416     3283     3284 1
    3417     3283     3310 1
    3418     3283     3311 1
    3419     3284     3285 1
    3420     3284     3312 1
    3421     3284     3313 1
    3422     3285     3286 1
    3423     3285     3314 1
    3424     3285     3315 1
    3425     3286     3316 1
    3426     3286     3317 1
    3427     3286     3318 1
    3428     3287     3288 1
    3429     3287     3319 1
    3430     3287     3320 1
    3431     3288     3289 1
    3432     3288     3321 1
    3433     3288     3322 1
    3434     3289     3290 1
    3435     3289     3323 1
    3436     3289     3324 1
    3437     3290     3291 1
    3438     3290     3325 1
    3439     3290     3326 1
    3440     3291     3292 1
    3441     3291     3327 1
    3442     3291     3328 1
    3443     3292     3293 1
    3444     3292     3329 1
    3445     3292     3330 1
    3446     3293     3294 1
    3447     3293     3331 1
    3448     3293     3332 1
    3449     3294     3333 1
    3450     3294     3334 1
    3451     3294     3335 1
    3452     3336     3337 1
    3453     3336     3343 1
    3454     3336     3359 1
    3455     3336     3420 1
    3456     3337     3338 1
    3457     3337     3341 1
    3458     3338     3339 1
    3459     3338     3342 1
    3460     3339     3340 1
    3461     3340     3341 1
    3462     3341     3347 1
    3463     3342     3343 1
    3464     3342     3346 1
    3465     3343     3344 1
    3466     3344     3345 1
    3467     3344     3348 1
    3468     3345     3346 1
    3469     3345     3351 1
    3470     3349     3350 1
    3471     3349     3357 1
    3472     3350     3351 1
    3473     3350     3358 1
    3474     3351     3352 1
    3475     3352     3353 1
    3476     3352     3356 1
    3477     3353     3354 1
    3478     3354     3355 1
    3479     3355     3356 1
    3480     3356     3357 1
    3481     3357     3485 1
    3482     3359     3360 1
    3483     3359     3379 1
    3484     3359     3380 1
    3485     3360     3361 1
    3486     3360     3371 1
    3487     3360     3381 1
    3488     3361     3362 1
    3489     3361     3382 1
    3490     3361     3383 1
    3491     3362     3363 1
    3492     3362     3384 1
    3493     3362     3385 1
    3494     3363     3364 1
    3495     3363     3386 1
    3496     3363     3387 1
    3497     3364     3365 1
    3498     3364     3388 1
    3499     3364     3389 1
    3500     3365     3366 1
    3501     3365     3390 1
    3502     3365     3391 1
    3503     3366     3367 1
    3504     3366     3392 1
    3505     3366     3393 1
    3506     3367     3368 1
    3507     3367     3394 1
    3508     3367     3395 1
    3509     3368     3369 1
    3510     3368     3396 1
    3511     3368     3397 1
    3512     3369     3370 1
    3513     3369     3398 1
    3514     3369     3399 1
    3515     3370     3400 1
    3516     3370     3401 1
    3517     3370     3402 1
    3518     3371     3372 1
    3519     3371     3403 1
    3520     3371     3404 1
    3521     3372     3373 1
    3522     3372     3405 1
    3523     3372     3406 1
    3524     3373     3374 1
    3525     3373     3407 1
    3526     3373     3408 1
    3527     3374     3375 1
    3528     3374     3409 1
    3529     3374     3410 1
    3530     3375     3376 1
    3531     3375     3411 1
    3532     3375     3412 1
    3533     3376     3377 1
    3534     3376     3413 1
    3535     3376     3414 1
    3536     3377     3378 1
    3537     3377     3415 1
    3538     3377     3416 1
    3539     3378     3417 1
    3540     3378     3418 1
    3541     3378     3419 1
    3542     3420     3421 1
    3543     3420     3440 1
    3544     3420     3441 1
    3545     3421     3422 1
    3546     3421     3432 1
    3547     3421     3442 1
    3548     3422     3423 1
    3549     3422     3443 1
    3550     3422     3444 1
    3551     3423     3424 1
    3552     3423     3445 1
    3553     3423     3446 1
    3554     3424     3425 1
    3555     3424     3447 1
    3556     3424     3448 1
    3557     3425     3426 1
    3558     3425     3449 1
    3559     3425     3450 1
    3560     3426     3427 1
    3561     3426     3451 1
    3562     3426     3452 1
    3563     3427     3428 1
    3564     3427     3453 1
    3565     3427     3454 1
    3566     3428     3429 1
    3567     3428     3455 1
    3568     3428     3456 1
    3569     3429     3430 1
    3570     3429     3457 1
    3571     3429     3458 1
    3572     3430     3431 1
    3573     3430     3459 1
    3574     3430     3460 1
    3575     3431     3461 1
    3576     3431     3462 1
    3577     3431     3463 1
    3578     3432     3433 1
    3579     3432     3464 1
    3580     3432     3465 1
    3581     3433     3434 1
    3582     3433     3466 1
    3583     3433     3467 1
    3584     3434     3435 1
    3585     3434     3468 1
    3586     3434     3469 1
    3587     3435     3436 1
    3588     3435     3470 1
    3589     3435     3471 1
    3590     3436     3437 1
    3591     3436     3472 1
    3592     3436     3473 1
    3593     3437     3438 1
    3594     3437     3474 1
    3595     3437     3475 1
    3596     3438     3439 1
    3597     3438     3476 1
    3598     3438     3477 1
    3599     3439     3478 1
    3600     3439     3479 1
    3601     3439     3480 1
    3602     3481     3482 1
    3603     3481     3488 1
    3604     3481     3504 1
    3605     3481     3565 1
    3606     3482     3483 1
    3607     3482     3486 1
    3608     3483     3484 1
    3609     3483     3487 1
    3610     3484     3485 1
    3611     3485     3486 1
    3612     3486     3492 1
    3613     3487     3488 1
    3614     3487     3491 1
    3615     3488     3489 1
    3616     3489     3490 1
    3617     3489     3493 1
    3618     3490     3491 1
    3619     3490     3496 1
    3620     3494     3495 1
    3621     3494     3502 1
    3622     3495     3496 1
    3623     3495     3503 1
    3624     3496     3497 1
    3625     3497     3498 1
    3626     3497     3501 1
    3627     3498     3499 1
    3628     3499     3500 1
    3629     3500     3501 1
    3630     3501     3502 1
    3631     3502     3630 1
    3632     3504     3505 1
    3633     3504     3524 1
    3634     3504     3525 1
    3635     3505     3506 1
    3636     3505     3516 1
    3637     3505     3526 1
    3638     3506     3507 1
    3639     3506     3527 1
    3640     3506     3528 1
    3641     3507     3508 1
    3642     3507     3529 1
    3643     3507     3530 1
    3644     3508     3509 1
    3645     3508     3531 1
    3646     3508     3532 1
    3647     3509     3510 1
    3648     3509     3533 1
    3649     3509     3534 1
    3650     3510     3511 1
    3651     3510     3535 1
    3652     3510     3536 1
    3653     3511     3512 1
    3654     3511     3537 1
    3655     3511     3538 1
    3656     3512     3513 1
    3657     3512     3539 1
    3658     3512     3540 1
    3659     3513     3514 1
    3660     3513     3541 1
    3661     3513     3542 1
    3662     3514     3515 1
    3663     3514     3543 1
    3664     3514     3544 1
    3665     3515     3545 1
    3666     3515     3546 1
    3667     3515     3547 1
    3668     3516     3517 1
    3669     3516     3548 1
    3670     3516     3549 1
    3671     3517     3518 1
    3672     3517     3550 1
    3673     3517     3551 1
    3674     3518     3519 1
    3675     3518     3552 1
    3676     3518     3553 1
    3677     3519     3520 1
    3678     3519     3554 1
    3679     3519     3555 1
    3680     3520     3521 1
    3681     3520     3556 1
    3682     3520     3557 1
    3683     3521     3522 1
    3684     3521     3558 1
    3685     3521     3559 1
    3686     3522     3523 1
    3687     3522     3560 1
    3688     3522     3561 1
    3689     3523     3562 1
    3690     3523     3563 1
    3691     3523     3564 1
    3692     3565     3566 1
    3693     3565     3585 1
    3694     3565     3586 1
    3695     3566     3567 1
    3696     3566     3577 1
    3697     3566     3587 1
    3698     3567     3568 1
    3699     3567     3588 1
    3700     3567     3589 1
    3701     3568     3569 1
    3702     3568     3590 1
    3703     3568     3591 1
    3704     3569     3570 1
    3705     3569     3592 1
    3706     3569     3593 1
    3707     3570     3571 1
    3708     3570     3594 1
    3709     3570     3595 1
    3710     3571     3572 1
    3711     3571     3596 1
    3712     3571     3597 1
    3713     3572     3573 1
    3714     3572     3598 1
    3715     3572     3599 1
    3716     3573     3574 1
    3717     3573     3600 1
    3718     3573     3601 1
    3719     3574     3575 1
    3720     3574     3602 1
    3721     3574     3603 1
    3722     3575     3576 1
    3723     3575     3604 1
    3724     3575     3605 1
    3725     3576     3606 1
    3726     3576     3607 1
    3727     3576     3608 1
    3728     3577     3578 1
    3729     3577     3609 1
    3730     3577     3610 1
    3731     3578     3579 1
    3732     3578     3611 1
    3733     3578     3612 1
    3734     3579     3580 1
    3735     3579     3613 1
    3736     3579     3614 1
    3737     3580     3581 1
    3738     3580     3615 1
    3739     3580     3616 1
    3740     3581     3582 1
    3741     3581     3617 1
    3742     3581     3618 1
    3743     3582     3583 1
    3744     3582     3619 1
    3745     3582     3620 1
    3746     3583     3584 1
    3747     3583     3621 1
    3748     3583     3622 1
    3749     3584     3623 1
    3750     3584     3624 1
    3751     3584     3625 1
    3752     3626     3627 1
    3753     3626     3633 1
    3754     3626     3649 1
    3755     3626     3710 1
    3756     3627     3628 1
    3757     3627     3631 1
    3758     3628     3629 1
    3759     3628     3632 1
    3760     3629     3630 1
    3761     3630     3631 1
    3762     3631     3637 1
    3763     3632     3633 1
    3764     3632     3636 1
    3765     3633     3634 1
    3766     3634     3635 1
    3767     3634     3638 1
    3768     3635     3636 1
    3769     3635     3641 1
    3770     3639     3640 1
    3771     3639     3647 1
    3772     3640     3641 1
    3773     3640     3648 1
    3774     3641     3642 1
    3775     3642     3643 1
    3776     3642     3646 1
    3777     3643     3644 1
    3778     3644     3645 1
    3779     3645     3646 1
    3780     3646     3647 1
    3781     3647     3775 1
    3782     3649     3650 1
    3783     3649     3669 1
    3784     3649     3670 1
    3785     3650     3651 1
    3786     3650     3661 1
    3787     3650     3671 1
    3788     3651     3652 1
    3789     3651     3672 1
    3790     3651     3673 1
    3791     3652     3653 1
    3792     3652     3674 1
    3793     3652     3675 1
    3794     3653     3654 1
    3795     3653     3676 1
    3796     3653     3677 1
    3797     3654     3655 1
    3798     3654     3678 1
    3799     3654     3679 1
    3800     3655     3656 1
    3801     3655     3680 1
    3802     3655     3681 1
    3803     3656     3657 1
    3804     3656     3682 1
    3805     3656     3683 1
    3806     3657     3658 1
    3807     3657     3684 1
    3808     3657     3685 1
    3809     3658     3659 1
    3810     3658     3686 1
    3811     3658     3687 1
    3812     3659     3660 1
    3813     3659     3688 1
    3814     3659     3689 1
    3815     3660     3690 1
    3816     3660     3691 1
    3817     3660     3692 1
    3818     3661     3662 1
    3819     3661     3693 1
    3820     3661     3694 1
    3821     3662     3663 1
    3822     3662     3695 1
    3823     3662     3696 1
    3824     3663     3664 1
    3825     3663     3697 1
    3826     3663     3698 1
    3827     3664     3665 1
    3828     3664     3699 1
    3829     3664     3700 1
    3830     3665     3666 1
    3831     3665     3701 1
    3832     3665     3702 1
    3833     3666     3667 1
    3834     3666     3703 1
    3835     3666     3704 1
    3836     3667     3668 1
    3837     3667     3705 1
    3838     3667     3706 1
    3839     3668     3707 1
    3840     3668     3708 1
    3841     3668     3709 1
    3842     3710     3711 1
    3843     3710     3730 1
    3844     3710     3731 1
    3845     3711     3712 1
    3846     3711     3722 1
    3847     3711     3732 1
    3848     3712     3713 1
    3849     3712     3733 1
    3850     3712     3734 1
    3851     3713     3714 1
    3852     3713     3735 1
    3853     3713     3736 1
    3854     3714     3715 1
    3855     3714     3737 1
    3856     3714     3738 1
    3857     3715     3716 1
    3858     3715     3739 1
    3859     3715     3740 1
    3860     3716     3717 1
    3861     3716     3741 1
    3862     3716     3742 1
    3863     3717     3718 1
    3864     3717     3743 1
    3865     3717     3744 1
    3866     3718     3719 1
    3867     3718     3745 1
    3868     3718     3746 1
    3869     3719     3720 1
    3870     3719     3747 1
    3871     3719     3748 1
    3872     3720     3721 1
    3873     3720     3749 1
    3874     3720     3750 1
    3875     3721     3751 1
    3876     3721     3752 1
    3877     3721     3753 1
    3878     3722     3723 1
    3879     3722     3754 1
    3880     3722     3755 1
    3881     3723     3724 1
    3882     3723     3756 1
    3883     3723     3757 1
    3884     3724     3725 1
    3885     3724     3758 1
    3886     3724     3759 1
    3887     3725     3726 1
    3888     3725     3760 1
    3889     3725     3761 1
    3890     3726     3727 1
    3891     3726     3762 1
    3892     3726     3763 1
    3893     3727     3728 1
    3894     3727     3764 1
    3895     3727     3765 1
    3896     3728     3729 1
    3897     3728     3766 1
    3898     3728     3767 1
    3899     3729     3768 1
    3900     3729     3769 1
    3901     3729     3770 1
    3902     3771     3772 1
    3903     3771     3778 1
    3904     3771     3794 1
    3905     3771     3855 1
    3906     3772     3773 1
    3907     3772     3776 1
    3908     3773     3774 1
    3909     3773     3777 1
    3910     3774     3775 1
    3911     3775     3776 1
    3912     3776     3782 1
    3913     3777     3778 1
    3914     3777     3781 1
    3915     3778     3779 1
    3916     3779     3780 1
    3917     3779     3783 1
    3918     3780     3781 1
    3919     3780     3786 1
    3920     3784     3785 1
    3921     3784     3792 1
    3922     3785     3786 1
    3923     3785     3793 1
    3924     3786     3787 1
    3925     3787     3788 1
    3926     3787     3791 1
    3927     3788     3789 1
    3928     3789     3790 1
    3929     3790     3791 1
    3930     3791     3792 1
    3931     3792     3920 1
    3932     3794     3795 1
    3933     3794     3814 1
    3934     3794     3815 1
    3935     3795     3796 1
    3936     3795     3806 1
    3937     3795     3816 1
    3938     3796     3797 1
    3939     3796     3817 1
    3940     3796     3818 1
    3941     3797     3798 1
    3942     3797     3819 1
    3943     3797     3820 1
    3944     3798     3799 1
    3945     3798     3821 1
    3946     3798     3822 1
    3947     3799     3800 1
    3948     3799     3823 1
    3949     3799     3824 1
    3950     3800     3801 1
    3951     3800     3825 1
    3952     3800     3826 1
    3953     3801     3802 1
    3954     3801     3827 1
    3955     3801     3828 1
    3956     3802     3803 1
    3957     3802     3829 1
    3958     3802     3830 1
    3959     3803     3804 1
    3960     3803     3831 1
    3961     3803     3832 1
    3962     3804     3805 1
    3963     3804     3833 1
    3964     3804     3834 1
    3965     3805     3835 1
    3966     3805     3836 1
    3967     3805     3837 1
    3968     3806     3807 1
    3969     3806     3838 1
    3970     3806     3839 1
    3971     3807     3808 1
    3972     3807     3840 1
    3973     3807     3841 1
    3974     3808     3809 1
    3975     3808     3842 1
    3976     3808     3843 1
    3977     3809     3810 1
    3978     3809     3844 1
    3979     3809     3845 1
    3980     3810     3811 1
    3981     3810     3846 1
    3982     3810     3847 1
    3983     3811     3812 1
    3984     3811     3848 1
    3985     3811     3849 1
    3986     3812     3813 1
    3987     3812     3850 1
    3988     3812     3851 1
    3989     3813     3852 1
    3990     3813     3853 1
    3991     3813     3854 1
    3992     3855     3856 1
    3993     3855     3875 1
    3994     3855     3876 1
    3995     3856     3857 1
    3996     3856     3867 1
    3997     3856     3877 1
    3998     3857     3858 1
    3999     3857     3878 1
    4000     3857     3879 1
    4001     3858     3859 1
    4002     3858     3880 1
    4003     3858     3881 1
    4004     3859     3860 1
    4005     3859     3882 1
    4006     3859     3883 1
    4007     3860     3861 1
    4008     3860     3884 1
    4009     3860     3885 1
    4010     3861     3862 1
    4011     3861     3886 1
    4012     3861     3887 1
    4013     3862     3863 1
    4014     3862     3888 1
    4015     3862     3889 1
    4016     3863     3864 1
    4017     3863     3890 1
    4018     3863     3891 1
    4019     3864     3865 1
    4020     3864     3892 1
    4021     3864     3893 1
    4022     3865     3866 1
    4023     3865     3894 1
    4024     3865     3895 1
    4025     3866     3896 1
    4026     3866     3897 1
    4027     3866     3898 1
    4028     3867     3868 1
    4029     3867     3899 1
    4030     3867     3900 1
    4031     3868     3869 1
    4032     3868     3901 1
    4033     3868     3902 1
    4034     3869     3870 1
    4035     3869     3903 1
    4036     3869     3904 1
    4037     3870     3871 1
    4038     3870     3905 1
    4039     3870     3906 1
    4040     3871     3872 1
    4041     3871     3907 1
    4042     3871     3908 1
    4043     3872     3873 1
    4044     3872     3909 1
    4045     3872     3910 1
    4046     3873     3874 1
    4047     3873     3911 1
    4048     3873     3912 1
    4049     3874     3913 1
    4050     3874     3914 1
    4051     3874     3915 1
    4052     3916     3917 1
    4053     3916     3923 1
    4054     3916     3939 1
    4055     3916     4000 1
    4056     3917     3918 1
    4057     3917     3921 1
    4058     3918     3919 1
    4059     3918     3922 1
    4060     3919     3920 1
    4061     3920     3921 1
    4062     3921     3927 1
    4063     3922     3923 1
    4064     3922     3926 1
    4065     3923     3924 1
    4066     3924     3925 1
    4067     3924     3928 1
    4068     3925     3926 1
    4069     3925     3931 1
    4070     3929     3930 1
    4071     3929     3937 1
    4072     3930     3931 1
    4073     3930     3938 1
    4074     3931     3932 1
    4075     3932     3933 1
    4076     3932     3936 1
    4077     3933     3934 1
    4078     3934     3935 1
    4079     3935     3936 1
    4080     3936     3937 1
    4081     3937     4065 1
    4082     3939     3940 1
    4083     3939     3959 1
    4084     3939     3960 1
    4085     3940     3941 1
    4086     3940     3951 1
    4087     3940     3961 1
    4088     3941     3942 1
    4089     3941     3962 1
    4090     3941     3963 1
    4091     3942     3943 1
    4092     3942     3964 1
    4093     3942     3965 1
    4094     3943     3944 1
    4095     3943     3966 1
    4096     3943     3967 1
    4097     3944     3945 1
    4098     3944     3968 1
    4099     3944     3969 1
    4100     3945     3946 1
    4101     3945     3970 1
    4102     3945     3971 1
    4103     3946     3947 1
    4104     3946     3972 1
    4105     3946     3973 1
    4106     3947     3948 1
    4107     3947     3974 1
    4108     3947     3975 1
    4109     3948     3949 1
    4110     3948     3976 1
    4111     3948     3977 1
    4112     3949     3950 1
    4113     3949     3978 1
    4114     3949     3979 1
    4115     3950     3980 1
    4116     3950     3981 1
    4117     3950     3982 1
    4118     3951     3952 1
    4119     3951     3983 1
    4120     3951     3984 1
    4121     3952     3953 1
    4122     3952     3985 1
    4123     3952     3986 1
    4124     3953     3954 1
    4125     3953     3987 1
    4126     3953     3988 1
    4127     3954     3955 1
    4128     3954     3989 1
    4129     3954     3990 1
    4130     3955     3956 1
    4131     3955     3991 1
    4132     3955     3992 1
    4133     3956     3957 1
    4134     3956     3993 1
    4135     3956     3994 1
    4136     3957     3958 1
    4137     3957     3995 1
    4138     3957     3996 1
    4139     3958     3997 1
    4140     3958     3998 1
    4141     3958     3999 1
    4142     4000     4001 1
    4143     4000     4020 1
    4144     4000     4021 1
    4145     4001     4002 1
    4146     4001     4012 1
    4147     4001     4022 1
    4148     4002     4003 1
    4149     4002     4023 1
    4150     4002     4024 1
    4151     4003     4004 1
    4152     4003     4025 1
    4153     4003     4026 1
    4154     4004     4005 1
    4155     4004     4027 1
    4156     4004     4028 1
    4157     4005     4006 1
    4158     4005     4029 1
    4159     4005     4030 1
    4160     4006     4007 1
    4161     4006     4031 1
    4162     4006     4032 1
    4163     4007     4008 1
    4164     4007     4033 1
    4165     4007     4034 1
    4166     4008     4009 1
    4167     4008     4035 1
    4168     4008     4036 1
    4169     4009     4010 1
    4170     4009     4037 1
    4171     4009     4038 1
    4172     4010     4011 1
    4173     4010     4039 1
    4174     4010     4040 1
    4175     4011     4041 1
    4176     4011     4042 1
    4177     4011     4043 1
    4178     4012     4013 1
    4179     4012     4044 1
    4180     4012     4045 1
    4181     4013     4014 1
    4182     4013     4046 1
    4183     4013     4047 1
    4184     4014     4015 1
    4185     4014     4048 1
    4186     4014     4049 1
    4187     4015     4016 1
    4188     4015     4050 1
    4189     4015     4051 1
    4190     4016     4017 1
    4191     4016     4052 1
    4192     4016     4053 1
    4193     4017     4018 1
    4194     4017     4054 1
    4195     4017     4055 1
    4196     4018     4019 1
    4197     4018     4056 1
    4198     4018     4057 1
    4199     4019     4058 1
    4200     4019     4059 1
    4201     4019     4060 1
    4202     4061     4062 1
    4203     4061     4068 1
    4204     4061     4084 1
    4205     4061     4145 1
    4206     4062     4063 1
    4207     4062     4066 1
    4208     4063     4064 1
    4209     4063     4067 1
    4210     4064     4065 1
    4211     4065     4066 1
    4212     4066     4072 1
    4213     4067     4068 1
    4214     4067     4071 1
    4215     4068     4069 1
    4216     4069     4070 1
    4217     4069     4073 1
    4218     4070     4071 1
    4219     4070     4076 1
    4220     4074     4075 1
    4221     4074     4082 1
    4222     4075     4076 1
    4223     4075     4083 1
    4224     4076     4077 1
    4225     4077     4078 1
    4226     4077     4081 1
    4227     4078     4079 1
    4228     4079     4080 1
    4229     4080     4081 1
    4230     4081     4082 1
    4231     4082     4210 1
    4232     4084     4085 1
    4233     4084     4104 1
    4234     4084     4105 1
    4235     4085     4086 1
    4236     4085     4096 1
    4237     4085     4106 1
    4238     4086     4087 1
    4239     4086     4107 1
    4240     4086     4108 1
    4241     4087     4088 1
    4242     4087     4109 1
    4243     4087     4110 1
    4244     4088     4089 1
    4245     4088     4111 1
    4246     4088     4112 1
    4247     4089     4090 1
    4248     4089     4113 1
    4249     4089     4114 1
    4250     4090     4091 1
    4251     4090     4115 1
    4252     4090     4116 1
    4253     4091     4092 1
    4254     4091     4117 1
    4255     4091     4118 1
    4256     4092     4093 1
    4257     4092     4119 1
    4258     4092     4120 1
    4259     4093     4094 1
    4260     4093     4121 1
    4261     4093     4122 1
    4262     4094     4095 1
    4263     4094     4123 1
    4264     4094     4124 1
    4265     4095     4125 1
    4266     4095     4126 1
    4267     4095     4127 1
    4268     4096     4097 1
    4269     4096     4128 1
    4270     4096     4129 1
    4271     4097     4098 1
    4272     4097     4130 1
    4273     4097     4131 1
    4274     4098     4099 1
    4275     4098     4132 1
    4276     4098     4133 1
    4277     4099     4100 1
    4278     4099     4134 1
    4279     4099     4135 1
    4280     4100     4101 1
    4281     4100     4136 1
    4282     4100     4137 1
    4283     4101     4102 1
    4284     4101     4138 1
    4285     4101     4139 1
    4286     4102     4103 1
    4287     4102     4140 1
    4288     4102     4141 1
    4289     4103     4142 1
    4290     4103     4143 1
    4291     4103     4144 1
    4292     4145     4146 1
    4293     4145     4165 1
    4294     4145     4166 1
    4295     4146     4147 1
    4296     4146     4157 1
    4297     4146     4167 1
    4298     4147     4148 1
    4299     4147     4168 1
    4300     4147     4169 1
    4301     4148     4149 1
    4302     4148     4170 1
    4303     4148     4171 1
    4304     4149     4150 1
    4305     4149     4172 1
    4306     4149     4173 1
    4307     4150     4151 1
    4308     4150     4174 1
    4309     4150     4175 1
    4310     4151     4152 1
    4311     4151     4176 1
    4312     4151     4177 1
    4313     4152     4153 1
    4314     4152     4178 1
    4315     4152     4179 1
    4316     4153     4154 1
    4317     4153     4180 1
    4318     4153     4181 1
    4319     4154     4155 1
    4320     4154     4182 1
    4321     4154     4183 1
    4322     4155     4156 1
    4323     4155     4184 1
    4324     4155     4185 1
    4325     4156     4186 1
    4326     4156     4187 1
    4327     4156     4188 1
    4328     4157     4158 1
    4329     4157     4189 1
    4330     4157     4190 1
    4331     4158     4159 1
    4332     4158     4191 1
    4333     4158     4192 1
    4334     4159     4160 1
    4335     4159     4193 1
    4336     4159     4194 1
    4337     4160     4161 1
    4338     4160     4195 1
    4339     4160     4196 1
    4340     4161     4162 1
    4341     4161     4197 1
    4342     4161     4198 1
    4343     4162     4163 1
    4344     4162     4199 1
    4345     4162     4200 1
    4346     4163     4164 1
    4347     4163     4201 1
    4348     4163     4202 1
    4349     4164     4203 1
    4350     4164     4204 1
    4351     4164     4205 1
    4352     4206     4207 1
    4353     4206     4213 1
    4354     4206     4229 1
    4355     4206     4290 1
    4356     4207     4208 1
    4357     4207     4211 1
    4358     4208     4209 1
    4359     4208     4212 1
    4360     4209     4210 1
    4361     4210     4211 1
    4362     4211     4217 1
    4363     4212     4213 1
    4364     4212     4216 1
    4365     4213     4214 1
    4366     4214     4215 1
    4367     4214     4218 1
    4368     4215     4216 1
    4369     4215     4221 1
    4370     4219     4220 1
    4371     4219     4227 1
    4372     4220     4221 1
    4373     4220     4228 1
    4374     4221     4222 1
    4375     4222     4223 1
    4376     4222     4226 1
    4377     4223     4224 1
    4378     4224     4225 1
    4379     4225     4226 1
    4380     4226     4227 1
    4381     4227     4355 1
    4382     4229     4230 1
    4383     4229     4249 1
    4384     4229     4250 1
    4385     4230     4231 1
    4386     4230     4241 1
    4387     4230     4251 1
    4388     4231     4232 1
    4389     4231     4252 1
    4390     4231     4253 1
    4391     4232     4233 1
    4392     4232     4254 1
    4393     4232     4255 1
    4394     4233     4234 1
    4395     4233     4256 1
    4396     4233     4257 1
    4397     4234     4235 1
    4398     4234     4258 1
    4399     4234     4259 1
    4400     4235     4236 1
    4401     4235     4260 1
    4402     4235     4261 1
    4403     4236     4237 1
    4404     4236     4262 1
    4405     4236     4263 1
    4406     4237     4238 1
    4407     4237     4264 1
    4408     4237     4265 1
    4409     4238     4239 1
    4410     4238     4266 1
    4411     4238     4267 1
    4412     4239     4240 1
    4413     4239     4268 1
    4414     4239     4269 1
    4415     4240     4270 1
    4416     4240     4271 1
    4417     4240     4272 1
    4418     4241     4242 1
    4419     4241     4273 1
    4420     4241     4274 1
    4421     4242     4243 1
    4422     4242     4275 1
    4423     4242     4276 1
    4424     4243     4244 1
    4425     4243     4277 1
    4426     4243     4278 1
    4427     4244     4245 1
    4428     4244     4279 1
    4429     4244     4280 1
    4430     4245     4246 1
    4431     4245     4281 1
    4432     4245     4282 1
    4433     4246     4247 1
    4434     4246     4283 1
    4435     4246     4284 1
    4436     4247     4248 1
    4437     4247     4285 1
    4438     4247     4286 1
    4439     4248     4287 1
    4440     4248     4288 1
    4441     4248     4289 1
    4442     4290     4291 1
    4443     4290     4310 1
    4444     4290     4311 1
    4445     4291     4292 1
    4446     4291     4302 1
    4447     4291     4312 1
    4448     4292     4293 1
    4449     4292     4313 1
    4450     4292     4314 1
    4451     4293     4294 1
    4452     4293     4315 1
    4453     4293     4316 1
    4454     4294     4295 1
    4455     4294     4317 1
    4456     4294     4318 1
    4457     4295     4296 1
    4458     4295     4319 1
    4459     4295     4320 1
    4460     4296     4297 1
    4461     4296     4321 1
    4462     4296     4322 1
    4463     4297     4298 1
    4464     4297     4323 1
    4465     4297     4324 1
    4466     4298     4299 1
    4467     4298     4325 1
    4468     4298     4326 1
    4469     4299     4300 1
    4470     4299     4327 1
    4471     4299     4328 1
    4472     4300     4301 1
    4473     4300     4329 1
    4474     4300     4330 1
    4475     4301     4331 1
    4476     4301     4332 1
    4477     4301     4333 1
    4478     4302     4303 1
    4479     4302     4334 1
    4480     4302     4335 1
    4481     4303     4304 1
    4482     4303     4336 1
    4483     4303     4337 1
    4484     4304     4305 1
    4485     4304     4338 1
    4486     4304     4339 1
    4487     4305     4306 1
    4488     4305     4340 1
    4489     4305     4341 1
    4490     4306     4307 1
    4491     4306     4342 1
    4492     4306     4343 1
    4493     4307     4308 1
    4494     4307     4344 1
    4495     4307     4345 1
    4496     4308     4309 1
    4497     4308     4346 1
    4498     4308     4347 1
    4499     4309     4348 1
    4500     4309     4349 1
    4501     4309     4350 1
    4502     4351     4352 1
    4503     4351     4358 1
    4504     4351     4374 1
    4505     4351     4435 1
    4506     4352     4353 1
    4507     4352     4356 1
    4508     4353     4354 1
    4509     4353     4357 1
    4510     4354     4355 1
    4511     4355     4356 1
    4512     4356     4362 1
    4513     4357     4358 1
    4514     4357     4361 1
    4515     4358     4359 1
    4516     4359     4360 1
    4517     4359     4363 1
    4518     4360     4361 1
    4519     4360     4366 1
    4520     4364     4365 1
    4521     4364     4372 1
    4522     4365     4366 1
    4523     4365     4373 1
    4524     4366     4367 1
    4525     4367     4368 1
    4526     4367     4371 1
    4527     4368     4369 1
    4528     4369     4370 1
    4529     4370     4371 1
    4530     4371     4372 1
    4531     4372     4500 1
    4532     4374     4375 1
    4533     4374     4394 1
    4534     4374     4395 1
    4535     4375     4376 1
    4536     4375     4386 1
    4537     4375     4396 1
    4538     4376     4377 1
    4539     4376     4397 1
    4540     4376     4398 1
    4541     4377     4378 1
    4542     4377     4399 1
    4543     4377     4400 1
    4544     4378     4379 1
    4545     4378     4401 1
    4546     4378     4402 1
    4547     4379     4380 1
    4548     4379     4403 1
    4549     4379     4404 1
    4550     4380     4381 1
    4551     4380     4405 1
    4552     4380     4406 1
    4553     4381     4382 1
    4554     4381     4407 1
    4555     4381     4408 1
    4556     4382     4383 1
    4557     4382     4409 1
    4558     4382     4410 1
    4559     4383     4384 1
    4560     4383     4411 1
    4561     4383     4412 1
    4562     4384     4385 1
    4563     4384     4413 1
    4564     4384     4414 1
    4565     4385     4415 1
    4566     4385     4416 1
    4567     4385     4417 1
    4568     4386     4387 1
    4569     4386     4418 1
    4570     4386     4419 1
    4571     4387     4388 1
    4572     4387     4420 1
    4573     4387     4421 1
    4574     4388     4389 1
    4575     4388     4422 1
    4576     4388     4423 1
    4577     4389     4390 1
    4578     4389     4424 1
    4579     4389     4425 1
    4580     4390     4391 1
    4581     4390     4426 1
    4582     4390     4427 1
    4583     4391     4392 1
    4584     4391     4428 1
    4585     4391     4429 1
    4586     4392     4393 1
    4587     4392     4430 1
    4588     4392     4431 1
    4589     4393     4432 1
    4590     4393     4433 1
    4591     4393     4434 1
    4592     4435     4436 1
    4593     4435     4455 1
    4594     4435     4456 1
    4595     4436     4437 1
    4596     4436     4447 1
    4597     4436     4457 1
    4598     4437     4438 1
    4599     4437     4458 1
    4600     4437     4459 1
    4601     4438     4439 1
    4602     4438     4460 1
    4603     4438     4461 1
    4604     4439     4440 1
    4605     4439     4462 1
    4606     4439     4463 1
    4607     4440     4441 1
    4608     4440     4464 1
    4609     4440     4465 1
    4610     4441     4442 1
    4611     4441     4466 1
    4612     4441     4467 1
    4613     4442     4443 1
    4614     4442     4468 1
    4615     4442     4469 1
    4616     4443     4444 1
    4617     4443     4470 1
    4618     4443     4471 1
    4619     4444     4445 1
    4620     4444     4472 1
    4621     4444     4473 1
    4622     4445     4446 1
    4623     4445     4474 1
    4624     4445     4475 1
    4625     4446     4476 1
    4626     4446     4477 1
    4627     4446     4478 1
    4628     4447     4448 1
    4629     4447     4479 1
    4630     4447     4480 1
    4631     4448     4449 1
    4632     4448     4481 1
    4633     4448     4482 1
    4634     4449     4450 1
    4635     4449     4483 1
    4636     4449     4484 1
    4637     4450     4451 1
    4638     4450     4485 1
    4639     4450     4486 1
    4640     4451     4452 1
    4641     4451     4487 1
    4642     4451     4488 1
    4643     4452     4453 1
    4644     4452     4489 1
    4645     4452     4490 1
    4646     4453     4454 1
    4647     4453     4491 1
    4648     4453     4492 1
    4649     4454     4493 1
    4650     4454     4494 1
    4651     4454     4495 1
    4652     4496     4497 1
    4653     4496     4503 1
    4654     4496     4519 1
    4655     4496     4580 1
    4656     4497     4498 1
    4657     4497     4501 1
    4658     4498     4499 1
    4659     4498     4502 1
    4660     4499     4500 1
    4661     4500     4501 1
    4662     4501     4507 1
    4663     4502     4503 1
    4664     4502     4506 1
    4665     4503     4504 1
    4666     4504     4505 1
    4667     4504     4508 1
    4668     4505     4506 1
    4669     4505     4511 1
    4670     4509     4510 1
    4671     4509     4517 1
    4672     4510     4511 1
    4673     4510     4518 1
    4674     4511     4512 1
    4675     4512     4513 1
    4676     4512     4516 1
    4677     4513     4514 1
    4678     4514     4515 1
    4679     4515     4516 1
    4680     4516     4517 1
    4681     4517     4645 1
    4682     4519     4520 1
    4683     4519     4539 1
    4684     4519     4540 1
    4685     4520     4521 1
    4686     4520     4531 1
    4687     4520     4541 1
    4688     4521     4522 1
    4689     4521     4542 1
    4690     4521     4543 1
    4691     4522     4523 1
    4692     4522     4544 1
    4693     4522     4545 1
    4694     4523     4524 1
    4695     4523     4546 1
    4696     4523     4547 1
    4697     4524     4525 1
    4698     4524     4548 1
    4699     4524     4549 1
    4700     4525     4526 1
    4701     4525     4550 1
    4702     4525     4551 1
    4703     4526     4527 1
    4704     4526     4552 1
    4705     4526     4553 1
    4706     4527     4528 1
    4707     4527     4554 1
    4708     4527     4555 1
    4709     4528     4529 1
    4710     4528     4556 1
    4711     4528     4557 1
    4712     4529     4530 1
    4713     4529     4558 1
    4714     4529     4559 1
    4715     4530     4560 1
    4716     4530     4561 1
    4717     4530     4562 1
    4718     4531     4532 1
    4719     4531     4563 1
    4720     4531     4564 1
    4721     4532     4533 1
    4722     4532     4565 1
    4723     4532     4566 1
    4724     4533     4534 1
    4725     4533     4567 1
    4726     4533     4568 1
    4727     4534     4535 1
    4728     4534     4569 1
    4729     4534     4570 1
    4730     4535     4536 1
    4731     4535     4571 1
    4732     4535     4572 1
    4733     4536     4537 1
    4734     4536     4573 1
    4735     4536     4574 1
    4736     4537     4538 1
    4737     4537     4575 1
    4738     4537     4576 1
    4739     4538     4577 1
    4740     4538     4578 1
    4741     4538     4579 1
    4742     4580     4581 1
    4743     4580     4600 1
    4744     4580     4601 1
    4745     4581     4582 1
    4746     4581     4592 1
    4747     4581     4602 1
    4748     4582     4583 1
    4749     4582     4603 1
    4750     4582     4604 1
    4751     4583     4584 1
    4752     4583     4605 1
    4753     4583     4606 1
    4754     4584     4585 1
    4755     4584     4607 1
    4756     4584     4608 1
    4757     4585     4586 1
    4758     4585     4609 1
    4759     4585     4610 1
    4760     4586     4587 1
    4761     4586     4611 1
    4762     4586     4612 1
    4763     4587     4588 1
    4764     4587     4613 1
    4765     4587     4614 1
    4766     4588     4589 1
    4767     4588     4615 1
    4768     4588     4616 1
    4769     4589     4590 1
    4770     4589     4617 1
    4771     4589     4618 1
    4772     4590     4591 1
    4773     4590     4619 1
    4774     4590     4620 1
    4775     4591     4621 1
    4776     4591     4622 1
    4777     4591     4623 1
    4778     4592     4593 1
    4779     4592     4624 1
    4780     4592     4625 1
    4781     4593     4594 1
    4782     4593     4626 1
    4783     4593     4627 1
    4784     4594     4595 1
    4785     4594     4628 1
    4786     4594     4629 1
    4787     4595     4596 1
    4788     4595     4630 1
    4789     4595     4631 1
    4790     4596     4597 1
    4791     4596     4632 1
    4792     4596     4633 1
    4793     4597     4598 1
    4794     4597     4634 1
    4795     4597     4635 1
    4796     4598     4599 1
    4797     4598     4636 1
    4798     4598     4637 1
    4799     4599     4638 1
    4800     4599     4639 1
    4801     4599     4640 1
    4802     4641     4642 1
    4803     4641     4648 1
    4804     4641     4664 1
    4805     4641     4725 1
    4806     4642     4643 1
    4807     4642     4646 1
    4808     4643     4644 1
    4809     4643     4647 1
    4810     4644     4645 1
    4811     4645     4646 1
    4812     4646     4652 1
    4813     4647     4648 1
    4814     4647     4651 1
    4815     4648     4649 1
    4816     4649     4650 1
    4817     4649     4653 1
    4818     4650     4651 1
    4819     4650     4656 1
    4820     4654     4655 1
    4821     4654     4662 1
    4822     4655     4656 1
    4823     4655     4663 1
    4824     4656     4657 1
    4825     4657     4658 1
    4826     4657     4661 1
    4827     4658     4659 1
    4828     4659     4660 1
    4829     4660     4661 1
    4830     4661     4662 1
    4831     4662     4790 1
    4832     4664     4665 1
    4833     4664     4684 1
    4834     4664     4685 1
    4835     4665     4666 1
    4836     4665     4676 1
    4837     4665     4686 1
    4838     4666     4667 1
    4839     4666     4687 1
    4840     4666     4688 1
    4841     4667     4668 1
    4842     4667     4689 1
    4843     4667     4690 1
    4844     4668     4669 1
    4845     4668     4691 1
    4846     4668     4692 1
    4847     4669     4670 1
    4848     4669     4693 1
    4849     4669     4694 1
    4850     4670     4671 1
    4851     4670     4695 1
    4852     4670     4696 1
    4853     4671     4672 1
    4854     4671     4697 1
    4855     4671     4698 1
    4856     4672     4673 1
    4857     4672     4699 1
    4858     4672     4700 1
    4859     4673     4674 1
    4860     4673     4701 1
    4861     4673     4702 1
    4862     4674     4675 1
    4863     4674     4703 1
    4864     4674     4704 1
    4865     4675     4705 1
    4866     4675     4706 1
    4867     4675     4707 1
    4868     4676     4677 1
    4869     4676     4708 1
    4870     4676     4709 1
    4871     4677     4678 1
    4872     4677     4710 1
    4873     4677     4711 1
    4874     4678     4679 1
    4875     4678     4712 1
    4876     4678     4713 1
    4877     4679     4680 1
    4878     4679     4714 1
    4879     4679     4715 1
    4880     4680     4681 1
    4881     4680     4716 1
    4882     4680     4717 1
    4883     4681     4682 1
    4884     4681     4718 1
    4885     4681     4719 1
    4886     4682     4683 1
    4887     4682     4720 1
    4888     4682     4721 1
    4889     4683     4722 1
    4890     4683     4723 1
    4891     4683     4724 1
    4892     4725     4726 1
    4893     4725     4745 1
    4894     4725     4746 1
    4895     4726     4727 1
    4896     4726     4737 1
    4897     4726     4747 1
    4898     4727     4728 1
    4899     4727     4748 1
    4900     4727     4749 1
    4901     4728     4729 1
    4902     4728     4750 1
    4903     4728     4751 1
    4904     4729     4730 1
    4905     4729     4752 1
    4906     4729     4753 1
    4907     4730     4731 1
    4908     4730     4754 1
    4909     4730     4755 1
    4910     4731     4732 1
    4911     4731     4756 1
    4912     4731     4757 1
    4913     4732     4733 1
    4914     4732     4758 1
    4915     4732     4759 1
    4916     4733     4734 1
    4917     4733     4760 1
    4918     4733     4761 1
    4919     4734     4735 1
    4920     4734     4762 1
    4921     4734     4763 1
    4922     4735     4736 1
    4923     4735     4764 1
    4924     4735     4765 1
    4925     4736     4766 1
    4926     4736     4767 1
    4927     4736     4768 1
    4928     4737     4738 1
    4929     4737     4769 1
    4930     4737     4770 1
    4931     4738     4739 1
    4932     4738     4771 1
    4933     4738     4772 1
    4934     4739     4740 1
    4935     4739     4773 1
    4936     4739     4774 1
    4937     4740     4741 1
    4938     4740     4775 1
    4939     4740     4776 1
    4940     4741     4742 1
    4941     4741     4777 1
    4942     4741     4778 1
    4943     4742     4743 1
    4944     4742     4779 1
    4945     4742     4780 1
    4946     4743     4744 1
    4947     4743     4781 1
    4948     4743     4782 1
    4949     4744     4783 1
    4950     4744     4784 1
    4951     4744     4785 1
    4952     4786     4787 1
    4953     4786     4793 1
    4954     4786     4809 1
    4955     4786     4870 1
    4956     4787     4788 1
    4957     4787     4791 1
    4958     4788     4789 1
    4959     4788     4792 1
    4960     4789     4790 1
    4961     4790     4791 1
    4962     4791     4797 1
    4963     4792     4793 1
    4964     4792     4796 1
    4965     4793     4794 1
    4966     4794     4795 1
    4967     4794     4798 1
    4968     4795     4796 1
    4969     4795     4801 1
    4970     4799     4800 1
    4971     4799     4807 1
    4972     4800     4801 1
    4973     4800     4808 1
    4974     4801     4802 1
    4975     4802     4803 1
    4976     4802     4806 1
    4977     4803     4804 1
    4978     4804     4805 1
    4979     4805     4806 1
    4980     4806     4807 1
    4981     4807     4935 1
    4982     4809     4810 1
    4983     4809     4829 1
    4984     4809     4830 1
    4985     4810     4811 1
    4986     4810     4821 1
    4987     4810     4831 1
    4988     4811     4812 1
    4989     4811     4832 1
    4990     4811     4833 1
    4991     4812     4813 1
    4992     4812     4834 1
    4993     4812     4835 1
    4994     4813     4814 1
    4995     4813     4836 1
    4996     4813     4837 1
    4997     4814     4815 1
    4998     4814     4838 1
    4999     4814     4839 1
    5000     4815     4816 1
    5001     4815     4840 1
    5002     4815     4841 1
    5003     4816     4817 1
    5004     4816     4842 1
    5005     4816     4843 1
    5006     4817     4818 1
    5007     4817     4844 1
    5008     4817     4845 1
    5009     4818     4819 1
    5010     4818     4846 1
    5011     4818     4847 1
    5012     4819     4820 1
    5013     4819     4848 1
    5014     4819     4849 1
    5015     4820     4850 1
    5016     4820     4851 1
    5017     4820     4852 1
    5018     4821     4822 1
    5019     4821     4853 1
    5020     4821     4854 1
    5021     4822     4823 1
    5022     4822     4855 1
    5023     4822     4856 1
    5024     4823     4824 1
    5025     4823     4857 1
    5026     4823     4858 1
    5027     4824     4825 1
    5028     4824     4859 1
    5029     4824     4860 1
    5030     4825     4826 1
    5031     4825     4861 1
    5032     4825     4862 1
    5033     4826     4827 1
    5034     4826     4863 1
    5035     4826     4864 1
    5036     4827     4828 1
    5037     4827     4865 1
    5038     4827     4866 1
    5039     4828     4867 1
    5040     4828     4868 1
    5041     4828     4869 1
    5042     4870     4871 1
    5043     4870     4890 1
    5044     4870     4891 1
    5045     4871     4872 1
    5046     4871     4882 1
    5047     4871     4892 1
    5048     4872     4873 1
    5049     4872     4893 1
    5050     4872     4894 1
    5051     4873     4874 1
    5052     4873     4895 1
    5053     4873     4896 1
    5054     4874     4875 1
    5055     4874     4897 1
    5056     4874     4898 1
    5057     4875     4876 1
    5058     4875     4899 1
    5059     4875     4900 1
    5060     4876     4877 1
    5061     4876     4901 1
    5062     4876     4902 1
    5063     4877     4878 1
    5064     4877     4903 1
    5065     4877     4904 1
    5066     4878     4879 1
    5067     4878     4905 1
    5068     4878     4906 1
    5069     4879     4880 1
    5070     4879     4907 1
    5071     4879     4908 1
    5072     4880     4881 1
    5073     4880     4909 1
    5074     4880     4910 1
    5075     4881     4911 1
    5076     4881     4912 1
    5077     4881     4913 1
    5078     4882     4883 1
    5079     4882     4914 1
    5080     4882     4915 1
    5081     4883     4884 1
    5082     4883     4916 1
    5083     4883     4917 1
    5084     4884     4885 1
    5085     4884     4918 1
    5086     4884     4919 1
    5087     4885     4886 1
    5088     4885     4920 1
    5089     4885     4921 1
    5090     4886     4887 1
    5091     4886     4922 1
    5092     4886     4923 1
    5093     4887     4888 1
    5094     4887     4924 1
    5095     4887     4925 1
    5096     4888     4889 1
    5097     4888     4926 1
    5098     4888     4927 1
    5099     4889     4928 1
    5100     4889     4929 1
    5101     4889     4930 1
    5102     4931     4932 1
    5103     4931     4938 1
    5104     4931     4954 1
    5105     4931     5015 1
    5106     4932     4933 1
    5107     4932     4936 1
    5108     4933     4934 1
    5109     4933     4937 1
    5110     4934     4935 1
    5111     4935     4936 1
    5112     4936     4942 1
    5113     4937     4938 1
    5114     4937     4941 1
    5115     4938     4939 1
    5116     4939     4940 1
    5117     4939     4943 1
    5118     4940     4941 1
    5119     4940     4946 1
    5120     4944     4945 1
    5121     4944     4952 1
    5122     4945     4946 1
    5123     4945     4953 1
    5124     4946     4947 1
    5125     4947     4948 1
    5126     4947     4951 1
    5127     4948     4949 1
    5128     4949     4950 1
    5129     4950     4951 1
    5130     4951     4952 1
    5131     4952     5080 1
    5132     4954     4955 1
    5133     4954     4974 1
    5134     4954     4975 1
    5135     4955     4956 1
    5136     4955     4966 1
    5137     4955     4976 1
    5138     4956     4957 1
    5139     4956     4977 1
    5140     4956     4978 1
    5141     4957     4958 1
    5142     4957     4979 1
    5143     4957     4980 1
    5144     4958     4959 1
    5145     4958     4981 1
    5146     4958     4982 1
    5147     4959     4960 1
    5148     4959     4983 1
    5149     4959     4984 1
    5150     4960     4961 1
    5151     4960     4985 1
    5152     4960     4986 1
    5153     4961     4962 1
    5154     4961     4987 1
    5155     4961     4988 1
    5156     4962     4963 1
    5157     4962     4989 1
    5158     4962     4990 1
    5159     4963     4964 1
    5160     4963     4991 1
    5161     4963     4992 1
    5162     4964     4965 1
    5163     4964     4993 1
    5164     4964     4994 1
    5165     4965     4995 1
    5166     4965     4996 1
    5167     4965     4997 1
    5168     4966     4967 1
    5169     4966     4998 1
    5170     4966     4999 1
    5171     4967     4968 1
    5172     4967     5000 1
    5173     4967     5001 1
    5174     4968     4969 1
    5175     4968     5002 1
    5176     4968     5003 1
    5177     4969     4970 1
    5178     4969     5004 1
    5179     4969     5005 1
    5180     4970     4971 1
    5181     4970     5006 1
    5182     4970     5007 1
    5183     4971     4972 1
    5184     4971     5008 1
    5185     4971     5009 1
    5186     4972     4973 1
    5187     4972     5010 1
    5188     4972     5011 1
    5189     4973     5012 1
    5190     4973     5013 1
    5191     4973     5014 1
    5192     5015     5016 1
    5193     5015     5035 1
    5194     5015     5036 1
    5195     5016     5017 1
    5196     5016     5027 1
    5197     5016     5037 1
    5198     5017     5018 1
    5199     5017     5038 1
    5200     5017     5039 1
    5201     5018     5019 1
    5202     5018     5040 1
    5203     5018     5041 1
    5204     5019     5020 1
    5205     5019     5042 1
    5206     5019     5043 1
    5207     5020     5021 1
    5208     5020     5044 1
    5209     5020     5045 1
    5210     5021     5022 1
    5211     5021     5046 1
    5212     5021     5047 1
    5213     5022     5023 1
    5214     5022     5048 1
    5215     5022     5049 1
    5216     5023     5024 1
    5217     5023     5050 1
    5218     5023     5051 1
    5219     5024     5025 1
    5220     5024     5052 1
    5221     5024     5053 1
    5222     5025     5026 1
    5223     5025     5054 1
    5224     5025     5055 1
    5225     5026     5056 1
    5226     5026     5057 1
    5227     5026     5058 1
    5228     5027     5028 1
    5229     5027     5059 1
    5230     5027     5060 1
    5231     5028     5029 1
    5232     5028     5061 1
    5233     5028     5062 1
    5234     5029     5030 1
    5235     5029     5063 1
    5236     5029     5064 1
    5237     5030     5031 1
    5238     5030     5065 1
    5239     5030     5066 1
    5240     5031     5032 1
    5241     5031     5067 1
    5242     5031     5068 1
    5243     5032     5033 1
    5244     5032     5069 1
    5245     5032     5070 1
    5246     5033     5034 1
    5247     5033     5071 1
    5248     5033     5072 1
    5249     5034     5073 1
    5250     5034     5074 1
    5251     5034     5075 1
    5252     5076     5077 1
    5253     5076     5083 1
    5254     5076     5099 1
    5255     5076     5160 1
    5256     5077     5078 1
    5257     5077     5081 1
    5258     5078     5079 1
    5259     5078     5082 1
    5260     5079     5080 1
    5261     5080     5081 1
    5262     5081     5087 1
    5263     5082     5083 1
    5264     5082     5086 1
    5265     5083     5084 1
    5266     5084     5085 1
    5267     5084     5088 1
    5268     5085     5086 1
    5269     5085     5091 1
    5270     5089     5090 1
    5271     5089     5097 1
    5272     5090     5091 1
    5273     5090     5098 1
    5274     5091     5092 1
    5275     5092     5093 1
    5276     5092     5096 1
    5277     5093     5094 1
    5278     5094     5095 1
    5279     5095     5096 1
    5280     5096     5097 1
    5281     5097     5225 1
    5282     5099     5100 1
    5283     5099     5119 1
    5284     5099     5120 1
    5285     5100     5101 1
    5286     5100     5111 1
    5287     5100     5121 1
    5288     5101     5102 1
    5289     5101     5122 1
    5290     5101     5123 1
    5291     5102     5103 1
    5292     5102     5124 1
    5293     5102     5125 1
    5294     5103     5104 1
    5295     5103     5126 1
    5296     5103     5127 1
    5297     5104     5105 1
    5298     5104     5128 1
    5299     5104     5129 1
    5300     5105     5106 1
    5301     5105     5130 1
    5302     5105     5131 1
    5303     5106     5107 1
    5304     5106     5132 1
    5305     5106     5133 1
    5306     5107     5108 1
    5307     5107     5134 1
    5308     5107     5135 1
    5309     5108     5109 1
    5310     5108     5136 1
    5311     5108     5137 1
    5312     5109     5110 1
    5313     5109     5138 1
    5314     5109     5139 1
    5315     5110     5140 1
    5316     5110     5141 1
    5317     5110     5142 1
    5318     5111     5112 1
    5319     5111     5143 1
    5320     5111     5144 1
    5321     5112     5113 1
    5322     5112     5145 1
    5323     5112     5146 1
    5324     5113     5114 1
    5325     5113     5147 1
    5326     5113     5148 1
    5327     5114     5115 1
    5328     5114     5149 1
    5329     5114     5150 1
    5330     5115     5116 1
    5331     5115     5151 1
    5332     5115     5152 1
    5333     5116     5117 1
    5334     5116     5153 1
    5335     5116     5154 1
    5336     5117     5118 1
    5337     5117     5155 1
    5338     5117     5156 1
    5339     5118     5157 1
    5340     5118     5158 1
    5341     5118     5159 1
    5342     5160     5161 1
    5343     5160     5180 1
    5344     5160     5181 1
    5345     5161     5162 1
    5346     5161     5172 1
    5347     5161     5182 1
    5348     5162     5163 1
    5349     5162     5183 1
    5350     5162     5184 1
    5351     5163     5164 1
    5352     5163     5185 1
    5353     5163     5186 1
    5354     5164     5165 1
    5355     5164     5187 1
    5356     5164     5188 1
    5357     5165     5166 1
    5358     5165     5189 1
    5359     5165     5190 1
    5360     5166     5167 1
    5361     5166     5191 1
    5362     5166     5192 1
    5363     5167     5168 1
    5364     5167     5193 1
    5365     5167     5194 1
    5366     5168     5169 1
    5367     5168     5195 1
    5368     5168     5196 1
    5369     5169     5170 1
    5370     5169     5197 1
    5371     5169     5198 1
    5372     5170     5171 1
    5373     5170     5199 1
    5374     5170     5200 1
    5375     5171     5201 1
    5376     5171     5202 1
    5377     5171     5203 1
    5378     5172     5173 1
    5379     5172     5204 1
    5380     5172     5205 1
    5381     5173     5174 1
    5382     5173     5206 1
    5383     5173     5207 1
    5384     5174     5175 1
    5385     5174     5208 1
    5386     5174     5209 1
    5387     5175     5176 1
    5388     5175     5210 1
    5389     5175     5211 1
    5390     5176     5177 1
    5391     5176     5212 1
    5392     5176     5213 1
    5393     5177     5178 1
    5394     5177     5214 1
    5395     5177     5215 1
    5396     5178     5179 1
    5397     5178     5216 1
    5398     5178     5217 1
    5399     5179     5218 1
    5400     5179     5219 1
    5401     5179     5220 1
    5402     5221     5222 1
    5403     5221     5228 1
    5404     5221     5244 1
    5405     5221     5305 1
    5406     5222     5223 1
    5407     5222     5226 1
    5408     5223     5224 1
    5409     5223     5227 1
    5410     5224     5225 1
    5411     5225     5226 1
    5412     5226     5232 1
    5413     5227     5228 1
    5414     5227     5231 1
    5415     5228     5229 1
    5416     5229     5230 1
    5417     5229     5233 1
    5418     5230     5231 1
    5419     5230     5236 1
    5420     5234     5235 1
    5421     5234     5242 1
    5422     5235     5236 1
    5423     5235     5243 1
    5424     5236     5237 1
    5425     5237     5238 1
    5426     5237     5241 1
    5427     5238     5239 1
    5428     5239     5240 1
    5429     5240     5241 1
    5430     5241     5242 1
    5431     5242     5370 1
    5432     5244     5245 1
    5433     5244     5264 1
    5434     5244     5265 1
    5435     5245     5246 1
    5436     5245     5256 1
    5437     5245     5266 1
    5438     5246     5247 1
    5439     5246     5267 1
    5440     5246     5268 1
    5441     5247     5248 1
    5442     5247     5269 1
    5443     5247     5270 1
    5444     5248     5249 1
    5445     5248     5271 1
    5446     5248     5272 1
    5447     5249     5250 1
    5448     5249     5273 1
    5449     5249     5274 1
    5450     5250     5251 1
    5451     5250     5275 1
    5452     5250     5276 1
    5453     5251     5252 1
    5454     5251     5277 1
    5455     5251     5278 1
    5456     5252     5253 1
    5457     5252     5279 1
    5458     5252     5280 1
    5459     5253     5254 1
    5460     5253     5281 1
    5461     5253     5282 1
    5462     5254     5255 1
    5463     5254     5283 1
    5464     5254     5284 1
    5465     5255     5285 1
    5466     5255     5286 1
    5467     5255     5287 1
    5468     5256     5257 1
    5469     5256     5288 1
    5470     5256     5289 1
    5471     5257     5258 1
    5472     5257     5290 1
    5473     5257     5291 1
    5474     5258     5259 1
    5475     5258     5292 1
    5476     5258     5293 1
    5477     5259     5260 1
    5478     5259     5294 1
    5479     5259     5295 1
    5480     5260     5261 1
    5481     5260     5296 1
    5482     5260     5297 1
    5483     5261     5262 1
    5484     5261     5298 1
    5485     5261     5299 1
    5486     5262     5263 1
    5487     5262     5300 1
    5488     5262     5301 1
    5489     5263     5302 1
    5490     5263     5303 1
    5491     5263     5304 1
    5492     5305     5306 1
    5493     5305     5325 1
    5494     5305     5326 1
    5495     5306     5307 1
    5496     5306     5317 1
    5497     5306     5327 1
    5498     5307     5308 1
    5499     5307     5328 1
    5500     5307     5329 1
    5501     5308     5309 1
    5502     5308     5330 1
    5503     5308     5331 1
    5504     5309     5310 1
    5505     5309     5332 1
    5506     5309     5333 1
    5507     5310     5311 1
    5508     5310     5334 1
    5509     5310     5335 1
    5510     5311     5312 1
    5511     5311     5336 1
    5512     5311     5337 1
    5513     5312     5313 1
    5514     5312     5338 1
    5515     5312     5339 1
    5516     5313     5314 1
    5517     5313     5340 1
    5518     5313     5341 1
    5519     5314     5315 1
    5520     5314     5342 1
    5521     5314     5343 1
    5522     5315     5316 1
    5523     5315     5344 1
    5524     5315     5345 1
    5525     5316     5346 1
    5526     5316     5347 1
    5527     5316     5348 1
    5528     5317     5318 1
    5529     5317     5349 1
    5530     5317     5350 1
    5531     5318     5319 1
    5532     5318     5351 1
    5533     5318     5352 1
    5534     5319     5320 1
    5535     5319     5353 1
    5536     5319     5354 1
    5537     5320     5321 1
    5538     5320     5355 1
    5539     5320     5356 1
    5540     5321     5322 1
    5541     5321     5357 1
    5542     5321     5358 1
    5543     5322     5323 1
    5544     5322     5359 1
    5545     5322     5360 1
    5546     5323     5324 1
    5547     5323     5361 1
    5548     5323     5362 1
    5549     5324     5363 1
    5550     5324     5364 1
    5551     5324     5365 1
    5552     5366     5367 1
    5553     5366     5373 1
    5554     5366     5389 1
    5555     5366     5450 1
    5556     5367     5368 1
    5557     5367     5371 1
    5558     5368     5369 1
    5559     5368     5372 1
    5560     5369     5370 1
    5561     5370     5371 1
    5562     5371     5377 1
    5563     5372     5373 1
    5564     5372     5376 1
    5565     5373     5374 1
    5566     5374     5375 1
    5567     5374     5378 1
    5568     5375     5376 1
    5569     5375     5381 1
    5570     5379     5380 1
    5571     5379     5387 1
    5572     5380     5381 1
    5573     5380     5388 1
    5574     5381     5382 1
    5575     5382     5383 1
    5576     5382     5386 1
    5577     5383     5384 1
    5578     5384     5385 1
    5579     5385     5386 1
    5580     5386     5387 1
    5581     5387     5515 1
    5582     5389     5390 1
    5583     5389     5409 1
    5584     5389     5410 1
    5585     5390     5391 1
    5586     5390     5401 1
    5587     5390     5411 1
    5588     5391     5392 1
    5589     5391     5412 1
    5590     5391     5413 1
    5591     5392     5393 1
    5592     5392     5414 1
    5593     5392     5415 1
    5594     5393     5394 1
    5595     5393     5416 1
    5596     5393     5417 1
    5597     5394     5395 1
    5598     5394     5418 1
    5599     5394     5419 1
    5600     5395     5396 1
    5601     5395     5420 1
    5602     5395     5421 1
    5603     5396     5397 1
    5604     5396     5422 1
    5605     5396     5423 1
    5606     5397     5398 1
    5607     5397     5424 1
    5608     5397     5425 1
    5609     5398     5399 1
    5610     5398     5426 1
    5611     5398     5427 1
    5612     5399     5400 1
    5613     5399     5428 1
    5614     5399     5429 1
    5615     5400     5430 1
    5616     5400     5431 1
    5617     5400     5432 1
    5618     5401     5402 1
    5619     5401     5433 1
    5620     5401     5434 1
    5621     5402     5403 1
    5622     5402     5435 1
    5623     5402     5436 1
    5624     5403     5404 1
    5625     5403     5437 1
    5626     5403     5438 1
    5627     5404     5405 1
    5628     5404     5439 1
    5629     5404     5440 1
    5630     5405     5406 1
    5631     5405     5441 1
    5632     5405     5442 1
    5633     5406     5407 1
    5634     5406     5443 1
    5635     5406     5444 1
    5636     5407     5408 1
    5637     5407     5445 1
    5638     5407     5446 1
    5639     5408     5447 1
    5640     5408     5448 1
    5641     5408     5449 1
    5642     5450     5451 1
    5643     5450     5470 1
    5644     5450     5471 1
    5645     5451     5452 1
    5646     5451     5462 1
    5647     5451     5472 1
    5648     5452     5453 1
    5649     5452     5473 1
    5650     5452     5474 1
    5651     5453     5454 1
    5652     5453     5475 1
    5653     5453     5476 1
    5654     5454     5455 1
    5655     5454     5477 1
    5656     5454     5478 1
    5657     5455     5456 1
    5658     5455     5479 1
    5659     5455     5480 1
    5660     5456     5457 1
    5661     5456     5481 1
    5662     5456     5482 1
    5663     5457     5458 1
    5664     5457     5483 1
    5665     5457     5484 1
    5666     5458     5459 1
    5667     5458     5485 1
    5668     5458     5486 1
    5669     5459     5460 1
    5670     5459     5487 1
    5671     5459     5488 1
    5672     5460     5461 1
    5673     5460     5489 1
    5674     5460     5490 1
    5675     5461     5491 1
    5676     5461     5492 1
    5677     5461     5493 1
    5678     5462     5463 1
    5679     5462     5494 1
    5680     5462     5495 1
    5681     5463     5464 1
    5682     5463     5496 1
    5683     5463     5497 1
    5684     5464     5465 1
    5685     5464     5498 1
    5686     5464     5499 1
    5687     5465     5466 1
    5688     5465     5500 1
    5689     5465     5501 1
    5690     5466     5467 1
    5691     5466     5502 1
    5692     5466     5503 1
    5693     5467     5468 1
    5694     5467     5504 1
    5695     5467     5505 1
    5696     5468     5469 1
    5697     5468     5506 1
    5698     5468     5507 1
    5699     5469     5508 1
    5700     5469     5509 1
    5701     5469     5510 1
    5702     5511     5512 1
    5703     5511     5518 1
    5704     5511     5534 1
    5705     5511     5595 1
    5706     5512     5513 1
    5707     5512     5516 1
    5708     5513     5514 1
    5709     5513     5517 1
    5710     5514     5515 1
    5711     5515     5516 1
    5712     5516     5522 1
    5713     5517     5518 1
    5714     5517     5521 1
    5715     5518     5519 1
    5716     5519     5520 1
    5717     5519     5523 1
    5718     5520     5521 1
    5719     5520     5526 1
    5720     5524     5525 1
    5721     5524     5532 1
    5722     5525     5526 1
    5723     5525     5533 1
    5724     5526     5527 1
    5725     5527     5528 1
    5726     5527     5531 1
    5727     5528     5529 1
    5728     5529     5530 1
    5729     5530     5531 1
    5730     5531     5532 1
    5731     5532     5660 1
    5732     5534     5535 1
    5733     5534     5554 1
    5734     5534     5555 1
    5735     5535     5536 1
    5736     5535     5546 1
    5737     5535     5556 1
    5738     5536     5537 1
    5739     5536     5557 1
    5740     5536     5558 1
    5741     5537     5538 1
    5742     5537     5559 1
    5743     5537     5560 1
    5744     5538     5539 1
    5745     5538     5561 1
    5746     5538     5562 1
    5747     5539     5540 1
    5748     5539     5563 1
    5749     5539     5564 1
    5750     5540     5541 1
    5751     5540     5565 1
    5752     5540     5566 1
    5753     5541     5542 1
    5754     5541     5567 1
    5755     5541     5568 1
    5756     5542     5543 1
    5757     5542     5569 1
    5758     5542     5570 1
    5759     5543     5544 1
    5760     5543     5571 1
    5761     5543     5572 1
    5762     5544     5545 1
    5763     5544     5573 1
    5764     5544     5574 1
    5765     5545     5575 1
    5766     5545     5576 1
    5767     5545     5577 1
    5768     5546     5547 1
    5769     5546     5578 1
    5770     5546     5579 1
    5771     5547     5548 1
    5772     5547     5580 1
    5773     5547     5581 1
    5774     5548     5549 1
    5775     5548     5582 1
    5776     5548     5583 1
    5777     5549     5550 1
    5778     5549     5584 1
    5779     5549     5585 1
    5780     5550     5551 1
    5781     5550     5586 1
    5782     5550     5587 1
    5783     5551     5552 1
    5784     5551     5588 1
    5785     5551     5589 1
    5786     5552     5553 1
    5787     5552     5590 1
    5788     5552     5591 1
    5789     5553     5592 1
    5790     5553     5593 1
    5791     5553     5594 1
    5792     5595     5596 1
    5793     5595     5615 1
    5794     5595     5616 1
    5795     5596     5597 1
    5796     5596     5607 1
    5797     5596     5617 1
    5798     5597     5598 1
    5799     5597     5618 1
    5800     5597     5619 1
    5801     5598     5599 1
    5802     5598     5620 1
    5803     5598     5621 1
    5804     5599     5600 1
    5805     5599     5622 1
    5806     5599     5623 1
    5807     5600     5601 1
    5808     5600     5624 1
    5809     5600     5625 1
    5810     5601     5602 1
    5811     5601     5626 1
    5812     5601     5627 1
    5813     5602     5603 1
    5814     5602     5628 1
    5815     5602     5629 1
    5816     5603     5604 1
    5817     5603     5630 1
    5818     5603     5631 1
    5819     5604     5605 1
    5820     5604     5632 1
    5821     5604     5633 1
    5822     5605     5606 1
    5823     5605     5634 1
    5824     5605     5635 1
    5825     5606     5636 1
    5826     5606     5637 1
    5827     5606     5638 1
    5828     5607     5608 1
    5829     5607     5639 1
    5830     5607     5640 1
    5831     5608     5609 1
    5832     5608     5641 1
    5833     5608     5642 1
    5834     5609     5610 1
    5835     5609     5643 1
    5836     5609     5644 1
    5837     5610     5611 1
    5838     5610     5645 1
    5839     5610     5646 1
    5840     5611     5612 1
    5841     5611     5647 1
    5842     5611     5648 1
    5843     5612     5613 1
    5844     5612     5649 1
    5845     5612     5650 1
    5846     5613     5614 1
    5847     5613     5651 1
    5848     5613     5652 1
    5849     5614     5653 1
    5850     5614     5654 1
    5851     5614     5655 1
    5852     5656     5657 1
    5853     5656     5663 1
    5854     5656     5679 1
    5855     5656     5740 1
    5856     5657     5658 1
    5857     5657     5661 1
    5858     5658     5659 1
    5859     5658     5662 1
    5860     5659     5660 1
    5861     5660     5661 1
    5862     5661     5667 1
    5863     5662     5663 1
    5864     5662     5666 1
    5865     5663     5664 1
    5866     5664     5665 1
    5867     5664     5668 1
    5868     5665     5666 1
    5869     5665     5671 1
    5870     5669     5670 1
    5871     5669     5677 1
    5872     5670     5671 1
    5873     5670     5678 1
    5874     5671     5672 1
    5875     5672     5673 1
    5876     5672     5676 1
    5877     5673     5674 1
    5878     5674     5675 1
    5879     5675     5676 1
    5880     5676     5677 1
    5881     5677     5805 1
    5882     5679     5680 1
    5883     5679     5699 1
    5884     5679     5700 1
    5885     5680     5681 1
    5886     5680     5691 1
    5887     5680     5701 1
    5888     5681     5682 1
    5889     5681     5702 1
    5890     5681     5703 1
    5891     5682     5683 1
    5892     5682     5704 1
    5893     5682     5705 1
    5894     5683     5684 1
    5895     5683     5706 1
    5896     5683     5707 1
    5897     5684     5685 1
    5898     5684     5708 1
    5899     5684     5709 1
    5900     5685     5686 1
    5901     5685     5710 1
    5902     5685     5711 1
    5903     5686     5687 1
    5904     5686     5712 1
    5905     5686     5713 1
    5906     5687     5688 1
    5907     5687     5714 1
    5908     5687     5715 1
    5909     5688     5689 1
    5910     5688     5716 1
    5911     5688     5717 1
    5912     5689     5690 1
    5913     5689     5718 1
    5914     5689     5719 1
    5915     5690     5720 1
    5916     5690     5721 1
    5917     5690     5722 1
    5918     5691     5692 1
    5919     5691     5723 1
    5920     5691     5724 1
    5921     5692     5693 1
    5922     5692     5725 1
    5923     5692     5726 1
    5924     5693     5694 1
    5925     5693     5727 1
    5926     5693     5728 1
    5927     5694     5695 1
    5928     5694     5729 1
    5929     5694     5730 1
    5930     5695     5696 1
    5931     5695     5731 1
    5932     5695     5732 1
    5933     5696     5697 1
    5934     5696     5733 1
    5935     5696     5734 1
    5936     5697     5698 1
    5937     5697     5735 1
    5938     5697     5736 1
    5939     5698     5737 1
    5940     5698     5738 1
    5941     5698     5739 1
    5942     5740     5741 1
    5943     5740     5760 1
    5944     5740     5761 1
    5945     5741     5742 1
    5946     5741     5752 1
    5947     5741     5762 1
    5948     5742     5743 1
    5949     5742     5763 1
    5950     5742     5764 1
    5951     5743     5744 1
    5952     5743     5765 1
    5953     5743     5766 1
    5954     5744     5745 1
    5955     5744     5767 1
    5956     5744     5768 1
    5957     5745     5746 1
    5958     5745     5769 1
    5959     5745     5770 1
    5960     5746     5747 1
    5961     5746     5771 1
    5962     5746     5772 1
    5963     5747     5748 1
    5964     5747     5773 1
    5965     5747     5774 1
    5966     5748     5749 1
    5967     5748     5775 1
    5968     5748     5776 1
    5969     5749     5750 1
    5970     5749     5777 1
    5971     5749     5778 1
    5972     5750     5751 1
    5973     5750     5779 1
    5974     5750     5780 1
    5975     5751     5781 1
    5976     5751     5782 1
    5977     5751     5783 1
    5978     5752     5753 1
    5979     5752     5784 1
    5980     5752     5785 1
    5981     5753     5754 1
    5982     5753     5786 1
    5983     5753     5787 1
    5984     5754     5755 1
    5985     5754     5788 1
    5986     5754     5789 1
    5987     5755     5756 1
    5988     5755     5790 1
    5989     5755     5791 1
    5990     5756     5757 1
    5991     5756     5792 1
    5992     5756     5793 1
    5993     5757     5758 1
    5994     5757     5794 1
    5995     5757     5795 1
    5996     5758     5759 1
    5997     5758     5796 1
    5998     5758     5797 1
    5999     5759     5798 1
    6000     5759     5799 1
    6001     5759     5800 1
    6002     5801     5802 1
    6003     5801     5808 1
    6004     5801     5824 1
    6005     5801     5885 1
    6006     5802     5803 1
    6007     5802     5806 1
    6008     5803     5804 1
    6009     5803     5807 1
    6010     5804     5805 1
    6011     5805     5806 1
    6012     5806     5812 1
    6013     5807     5808 1
    6014     5807     5811 1
    6015     5808     5809 1
    6016     5809     5810 1
    6017     5809     5813 1
    6018     5810     5811 1
    6019     5810     5816 1
    6020     5814     5815 1
    6021     5814     5822 1
    6022     5815     5816 1
    6023     5815     5823 1
    6024     5816     5817 1
    6025     5817     5818 1
    6026     5817     5821 1
    6027     5818     5819 1
    6028     5819     5820 1
    6029     5820     5821 1
    6030     5821     5822 1
    6031     5822     5950 1
    6032     5824     5825 1
    6033     5824     5844 1
    6034     5824     5845 1
    6035     5825     5826 1
    6036     5825     5836 1
    6037     5825     5846 1
    6038     5826     5827 1
    6039     5826     5847 1
    6040     5826     5848 1
    6041     5827     5828 1
    6042     5827     5849 1
    6043     5827     5850 1
    6044     5828     5829 1
    6045     5828     5851 1
    6046     5828     5852 1
    6047     5829     5830 1
    6048     5829     5853 1
    6049     5829     5854 1
    6050     5830     5831 1
    6051     5830     5855 1
    6052     5830     5856 1
    6053     5831     5832 1
    6054     5831     5857 1
    6055     5831     5858 1
    6056     5832     5833 1
    6057     5832     5859 1
    6058     5832     5860 1
    6059     5833     5834 1
    6060     5833     5861 1
    6061     5833     5862 1
    6062     5834     5835 1
    6063     5834     5863 1
    6064     5834     5864 1
    6065     5835     5865 1
    6066     5835     5866 1
    6067     5835     5867 1
    6068     5836     5837 1
    6069     5836     5868 1
    6070     5836     5869 1
    6071     5837     5838 1
    6072     5837     5870 1
    6073     5837     5871 1
    6074     5838     5839 1
    6075     5838     5872 1
    6076     5838     5873 1
    6077     5839     5840 1
    6078     5839     5874 1
    6079     5839     5875 1
    6080     5840     5841 1
    6081     5840     5876 1
    6082     5840     5877 1
    6083     5841     5842 1
    6084     5841     5878 1
    6085     5841     5879 1
    6086     5842     5843 1
    6087     5842     5880 1
    6088     5842     5881 1
    6089     5843     5882 1
    6090     5843     5883 1
    6091     5843     5884 1
    6092     5885     5886 1
    6093     5885     5905 1
    6094     5885     5906 1
    6095     5886     5887 1
    6096     5886     5897 1
    6097     5886     5907 1
    6098     5887     5888 1
    6099     5887     5908 1
    6100     5887     5909 1
    6101     5888     5889 1
    6102     5888     5910 1
    6103     5888     5911 1
    6104     5889     5890 1
    6105     5889     5912 1
    6106     5889     5913 1
    6107     5890     5891 1
    6108     5890     5914 1
    6109     5890     5915 1
    6110     5891     5892 1
    6111     5891     5916 1
    6112     5891     5917 1
    6113     5892     5893 1
    6114     5892     5918 1
    6115     5892     5919 1
    6116     5893     5894 1
    6117     5893     5920 1
    6118     5893     5921 1
    6119     5894     5895 1
    6120     5894     5922 1
    6121     5894     5923 1
    6122     5895     5896 1
    6123     5895     5924 1
    6124     5895     5925 1
    6125     5896     5926 1
    6126     5896     5927 1
    6127     5896     5928 1
    6128     5897     5898 1
    6129     5897     5929 1
    6130     5897     5930 1
    6131     5898     5899 1
    6132     5898     5931 1
    6133     5898     5932 1
    6134     5899     5900 1
    6135     5899     5933 1
    6136     5899     5934 1
    6137     5900     5901 1
    6138     5900     5935 1
    6139     5900     5936 1
    6140     5901     5902 1
    6141     5901     5937 1
    6142     5901     5938 1
    6143     5902     5903 1
    6144     5902     5939 1
    6145     5902     5940 1
    6146     5903     5904 1
    6147     5903     5941 1
    6148     5903     5942 1
    6149     5904     5943 1
    6150     5904     5944 1
    6151     5904     5945 1
    6152     5946     5947 1
    6153     5946     5953 1
    6154     5946     5969 1
    6155     5946     6030 1
    6156     5947     5948 1
    6157     5947     5951 1
    6158     5948     5949 1
    6159     5948     5952 1
    6160     5949     5950 1
    6161     5950     5951 1
    6162     5951     5957 1
    6163     5952     5953 1
    6164     5952     5956 1
    6165     5953     5954 1
    6166     5954     5955 1
    6167     5954     5958 1
    6168     5955     5956 1
    6169     5955     5961 1
    6170     5959     5960 1
    6171     5959     5967 1
    6172     5960     5961 1
    6173     5960     5968 1
    6174     5961     5962 1
    6175     5962     5963 1
    6176     5962     5966 1
    6177     5963     5964 1
    6178     5964     5965 1
    6179     5965     5966 1
    6180     5966     5967 1
    6181     5967     6095 1
    6182     5969     5970 1
    6183     5969     5989 1
    6184     5969     5990 1
    6185     5970     5971 1
    6186     5970     5981 1
    6187     5970     5991 1
    6188     5971     5972 1
    6189     5971     5992 1
    6190     5971     5993 1
    6191     5972     5973 1
    6192     5972     5994 1
    6193     5972     5995 1
    6194     5973     5974 1
    6195     5973     5996 1
    6196     5973     5997 1
    6197     5974     5975 1
    6198     5974     5998 1
    6199     5974     5999 1
    6200     5975     5976 1
    6201     5975     6000 1
    6202     5975     6001 1
    6203     5976     5977 1
    6204     5976     6002 1
    6205     5976     6003 1
    6206     5977     5978 1
    6207     5977     6004 1
    6208     5977     6005 1
    6209     5978     5979 1
    6210     5978     6006 1
    6211     5978     6007 1
    6212     5979     5980 1
    6213     5979     6008 1
    6214     5979     6009 1
    6215     5980     6010 1
    6216     5980     6011 1
    6217     5980     6012 1
    6218     5981     5982 1
    6219     5981     6013 1
    6220     5981     6014 1
    6221     5982     5983 1
    6222     5982     6015 1
    6223     5982     6016 1
    6224     5983     5984 1
    6225     5983     6017 1
    6226     5983     6018 1
    6227     5984     5985 1
    6228     5984     6019 1
    6229     5984     6020 1
    6230     5985     5986 1
    6231     5985     6021 1
    6232     5985     6022 1
    6233     5986     5987 1
    6234     5986     6023 1
    6235     5986     6024 1
    6236     5987     5988 1
    6237     5987     6025 1
    6238     5987     6026 1
    6239     5988     6027 1
    6240     5988     6028 1
    6241     5988     6029 1
    6242     6030     6031 1
    6243     6030     6050 1
    6244     6030     6051 1
    6245     6031     6032 1
    6246     6031     6042 1
    6247     6031     6052 1
    6248     6032     6033 1
    6249     6032     6053 1
    6250     6032     6054 1
    6251     6033     6034 1
    6252     6033     6055 1
    6253     6033     6056 1
    6254     6034     6035 1
    6255     6034     6057 1
    6256     6034     6058 1
    6257     6035     6036 1
    6258     6035     6059 1
    6259     6035     6060 1
    6260     6036     6037 1
    6261     6036     6061 1
    6262     6036     6062 1
    6263     6037     6038 1
    6264     6037     6063 1
    6265     6037     6064 1
    6266     6038     6039 1
    6267     6038     6065 1
    6268     6038     6066 1
    6269     6039     6040 1
    6270     6039     6067 1
    6271     6039     6068 1
    6272     6040     6041 1
    6273     6040     6069 1
    6274     6040     6070 1
    6275     6041     6071 1
    6276     6041     6072 1
    6277     6041     6073 1
    6278     6042     6043 1
    6279     6042     6074 1
    6280     6042     6075 1
    6281     6043     6044 1
    6282     6043     6076 1
    6283     6043     6077 1
    6284     6044     6045 1
    6285     6044     6078 1
    6286     6044     6079 1
    6287     6045     6046 1
    6288     6045     6080 1
    6289     6045     6081 1
    6290     6046     6047 1
    6291     6046     6082 1
    6292     6046     6083 1
    6293     6047     6048 1
    6294     6047     6084 1
    6295     6047     6085 1
    6296     6048     6049 1
    6297     6048     6086 1
    6298     6048     6087 1
    6299     6049     6088 1
    6300     6049     6089 1
    6301     6049     6090 1
    6302     6091     6092 1
    6303     6091     6098 1
    6304     6091     6114 1
    6305     6091     6175 1
    6306     6092     6093 1
    6307     6092     6096 1
    6308     6093     6094 1
    6309     6093     6097 1
    6310     6094     6095 1
    6311     6095     6096 1
    6312     6096     6102 1
    6313     6097     6098 1
    6314     6097     6101 1
    6315     6098     6099 1
    6316     6099     6100 1
    6317     6099     6103 1
    6318     6100     6101 1
    6319     6100     6106 1
    6320     6104     6105 1
    6321     6104     6112 1
    6322     6105     6106 1
    6323     6105     6113 1
    6324     6106     6107 1
    6325     6107     6108 1
    6326     6107     6111 1
    6327     6108     6109 1
    6328     6109     6110 1
    6329     6110     6111 1
    6330     6111     6112 1
    6331     6112     6240 1
    6332     6114     6115 1
    6333     6114     6134 1
    6334     6114     6135 1
    6335     6115     6116 1
    6336     6115     6126 1
    6337     6115     6136 1
    6338     6116     6117 1
    6339     6116     6137 1
    6340     6116     6138 1
    6341     6117     6118 1
    6342     6117     6139 1
    6343     6117     6140 1
    6344     6118     6119 1
    6345     6118     6141 1
    6346     6118     6142 1
    6347     6119     6120 1
    6348     6119     6143 1
    6349     6119     6144 1
    6350     6120     6121 1
    6351     6120     6145 1
    6352     6120     6146 1
    6353     6121     6122 1
    6354     6121     6147 1
    6355     6121     6148 1
    6356     6122     6123 1
    6357     6122     6149 1
    6358     6122     6150 1
    6359     6123     6124 1
    6360     6123     6151 1
    6361     6123     6152 1
    6362     6124     6125 1
    6363     6124     6153 1
    6364     6124     6154 1
    6365     6125     6155 1
    6366     6125     6156 1
    6367     6125     6157 1
    6368     6126     6127 1
    6369     6126     6158 1
    6370     6126     6159 1
    6371     6127     6128 1
    6372     6127     6160 1
    6373     6127     6161 1
    6374     6128     6129 1
    6375     6128     6162 1
    6376     6128     6163 1
    6377     6129     6130 1
    6378     6129     6164 1
    6379     6129     6165 1
    6380     6130     6131 1
    6381     6130     6166 1
    6382     6130     6167 1
    6383     6131     6132 1
    6384     6131     6168 1
    6385     6131     6169 1
    6386     6132     6133 1
    6387     6132     6170 1
    6388     6132     6171 1
    6389     6133     6172 1
    6390     6133     6173 1
    6391     6133     6174 1
    6392     6175     6176 1
    6393     6175     6195 1
    6394     6175     6196 1
    6395     6176     6177 1
    6396     6176     6187 1
    6397     6176     6197 1
    6398     6177     6178 1
    6399     6177     6198 1
    6400     6177     6199 1
    6401     6178     6179 1
    6402     6178     6200 1
    6403     6178     6201 1
    6404     6179     6180 1
    6405     6179     6202 1
    6406     6179     6203 1
    6407     6180     6181 1
    6408     6180     6204 1
    6409     6180     6205 1
    6410     6181     6182 1
    6411     6181     6206 1
    6412     6181     6207 1
    6413     6182     6183 1
    6414     6182     6208 1
    6415     6182     6209 1
    6416     6183     6184 1
    6417     6183     6210 1
    6418     6183     6211 1
    6419     6184     6185 1
    6420     6184     6212 1
    6421     6184     6213 1
    6422     6185     6186 1
    6423     6185     6214 1
    6424     6185     6215 1
    6425     6186     6216 1
    6426     6186     6217 1
    6427     6186     6218 1
    6428     6187     6188 1
    6429     6187     6219 1
    6430     6187     6220 1
    6431     6188     6189 1
    6432     6188     6221 1
    6433     6188     6222 1
    6434     6189     6190 1
    6435     6189     6223 1
    6436     6189     6224 1
    6437     6190     6191 1
    6438     6190     6225 1
    6439     6190     6226 1
    6440     6191     6192 1
    6441     6191     6227 1
    6442     6191     6228 1
    6443     6192     6193 1
    6444     6192     6229 1
    6445     6192     6230 1
    6446     6193     6194 1
    6447     6193     6231 1
    6448     6193     6232 1
    6449     6194     6233 1
    6450     6194     6234 1
    6451     6194     6235 1
    6452     6236     6237 1
    6453     6236     6243 1
    6454     6236     6259 1
    6455     6236     6320 1
    6456     6237     6238 1
    6457     6237     6241 1
    6458     6238     6239 1
    6459     6238     6242 1
    6460     6239     6240 1
    6461     6240     6241 1
    6462     6241     6247 1
    6463     6242     6243 1
    6464     6242     6246 1
    6465     6243     6244 1
    6466     6244     6245 1
    6467     6244     6248 1
    6468     6245     6246 1
    6469     6245     6251 1
    6470     6249     6250 1
    6471     6249     6257 1
    6472     6250     6251 1
    6473     6250     6258 1
    6474     6251     6252 1
    6475     6252     6253 1
    6476     6252     6256 1
    6477     6253     6254 1
    6478     6254     6255 1
    6479     6255     6256 1
    6480     6256     6257 1
    6481     6257     6385 1
    6482     6259     6260 1
    6483     6259     6279 1
    6484     6259     6280 1
    6485     6260     6261 1
    6486     6260     6271 1
    6487     6260     6281 1
    6488     6261     6262 1
    6489     6261     6282 1
    6490     6261     6283 1
    6491     6262     6263 1
    6492     6262     6284 1
    6493     6262     6285 1
    6494     6263     6264 1
    6495     6263     6286 1
    6496     6263     6287 1
    6497     6264     6265 1
    6498     6264     6288 1
    6499     6264     6289 1
    6500     6265     6266 1
    6501     6265     6290 1
    6502     6265     6291 1
    6503     6266     6267 1
    6504     6266     6292 1
    6505     6266     6293 1
    6506     6267     6268 1
    6507     6267     6294 1
    6508     6267     6295 1
    6509     6268     6269 1
    6510     6268     6296 1
    6511     6268     6297 1
    6512     6269     6270 1
    6513     6269     6298 1
    6514     6269     6299 1
    6515     6270     6300 1
    6516     6270     6301 1
    6517     6270     6302 1
    6518     6271     6272 1
    6519     6271     6303 1
    6520     6271     6304 1
    6521     6272     6273 1
    6522     6272     6305 1
    6523     6272     6306 1
    6524     6273     6274 1
    6525     6273     6307 1
    6526     6273     6308 1
    6527     6274     6275 1
    6528     6274     6309 1
    6529     6274     6310 1
    6530     6275     6276 1
    6531     6275     6311 1
    6532     6275     6312 1
    6533     6276     6277 1
    6534     6276     6313 1
    6535     6276     6314 1
    6536     6277     6278 1
    6537     6277     6315 1
    6538     6277     6316 1
    6539     6278     6317 1
    6540     6278     6318 1
    6541     6278     6319 1
    6542     6320     6321 1
    6543     6320     6340 1
    6544     6320     6341 1
    6545     6321     6322 1
    6546     6321     6332 1
    6547     6321     6342 1
    6548     6322     6323 1
    6549     6322     6343 1
    6550     6322     6344 1
    6551     6323     6324 1
    6552     6323     6345 1
    6553     6323     6346 1
    6554     6324     6325 1
    6555     6324     6347 1
    6556     6324     6348 1
    6557     6325     6326 1
    6558     6325     6349 1
    6559     6325     6350 1
    6560     6326     6327 1
    6561     6326     6351 1
    6562     6326     6352 1
    6563     6327     6328 1
    6564     6327     6353 1
    6565     6327     6354 1
    6566     6328     6329 1
    6567     6328     6355 1
    6568     6328     6356 1
    6569     6329     6330 1
    6570     6329     6357 1
    6571     6329     6358 1
    6572     6330     6331 1
    6573     6330     6359 1
    6574     6330     6360 1
    6575     6331     6361 1
    6576     6331     6362 1
    6577     6331     6363 1
    6578     6332     6333 1
    6579     6332     6364 1
    6580     6332     6365 1
    6581     6333     6334 1
    6582     6333     6366 1
    6583     6333     6367 1
    6584     6334     6335 1
    6585     6334     6368 1
    6586     6334     6369 1
    6587     6335     6336 1
    6588     6335     6370 1
    6589     6335     6371 1
    6590     6336     6337 1
    6591     6336     6372 1
    6592     6336     6373 1
    6593     6337     6338 1
    6594     6337     6374 1
    6595     6337     6375 1
    6596     6338     6339 1
    6597     6338     6376 1
    6598     6338     6377 1
    6599     6339     6378 1
    6600     6339     6379 1
    6601     6339     6380 1
    6602     6381     6382 1
    6603     6381     6388 1
    6604     6381     6404 1
    6605     6381     6465 1
    6606     6382     6383 1
    6607     6382     6386 1
    6608     6383     6384 1
    6609     6383     6387 1
    6610     6384     6385 1
    6611     6385     6386 1
    6612     6386     6392 1
    6613     6387     6388 1
    6614     6387     6391 1
    6615     6388     6389 1
    6616     6389     6390 1
    6617     6389     6393 1
    6618     6390     6391 1
    6619     6390     6396 1
    6620     6394     6395 1
    6621     6394     6402 1
    6622     6395     6396 1
    6623     6395     6403 1
    6624     6396     6397 1
    6625     6397     6398 1
    6626     6397     6401 1
    6627     6398     6399 1
    6628     6399     6400 1
    6629     6400     6401 1
    6630     6401     6402 1
    6631     6402     6530 1
    6632     6404     6405 1
    6633     6404     6424 1
    6634     6404     6425 1
    6635     6405     6406 1
    6636     6405     6416 1
    6637     6405     6426 1
    6638     6406     6407 1
    6639     6406     6427 1
    6640     6406     6428 1
    6641     6407     6408 1
    6642     6407     6429 1
    6643     6407     6430 1
    6644     6408     6409 1
    6645     6408     6431 1
    6646     6408     6432 1
    6647     6409     6410 1
    6648     6409     6433 1
    6649     6409     6434 1
    6650     6410     6411 1
    6651     6410     6435 1
    6652     6410     6436 1
    6653     6411     6412 1
    6654     6411     6437 1
    6655     6411     6438 1
    6656     6412     6413 1
    6657     6412     6439 1
    6658     6412     6440 1
    6659     6413     6414 1
    6660     6413     6441 1
    6661     6413     6442 1
    6662     6414     6415 1
    6663     6414     6443 1
    6664     6414     6444 1
    6665     6415     6445 1
    6666     6415     6446 1
    6667     6415     6447 1
    6668     6416     6417 1
    6669     6416     6448 1
    6670     6416     6449 1
    6671     6417     6418 1
    6672     6417     6450 1
    6673     6417     6451 1
    6674     6418     6419 1
    6675     6418     6452 1
    6676     6418     6453 1
    6677     6419     6420 1
    6678     6419     6454 1
    6679     6419     6455 1
    6680     6420     6421 1
    6681     6420     6456 1
    6682     6420     6457 1
    6683     6421     6422 1
    6684     6421     6458 1
    6685     6421     6459 1
    6686     6422     6423 1
    6687     6422     6460 1
    6688     6422     6461 1
    6689     6423     6462 1
    6690     6423     6463 1
    6691     6423     6464 1
    6692     6465     6466 1
    6693     6465     6485 1
    6694     6465     6486 1
    6695     6466     6467 1
    6696     6466     6477 1
    6697     6466     6487 1
    6698     6467     6468 1
    6699     6467     6488 1
    6700     6467     6489 1
    6701     6468     6469 1
    6702     6468     6490 1
    6703     6468     6491 1
    6704     6469     6470 1
    6705     6469     6492 1
    6706     6469     6493 1
    6707     6470     6471 1
    6708     6470     6494 1
    6709     6470     6495 1
    6710     6471     6472 1
    6711     6471     6496 1
    6712     6471     6497 1
    6713     6472     6473 1
    6714     6472     6498 1
    6715     6472     6499 1
    6716     6473     6474 1
    6717     6473     6500 1
    6718     6473     6501 1
    6719     6474     6475 1
    6720     6474     6502 1
    6721     6474     6503 1
    6722     6475     6476 1
    6723     6475     6504 1
    6724     6475     6505 1
    6725     6476     6506 1
    6726     6476     6507 1
    6727     6476     6508 1
    6728     6477     6478 1
    6729     6477     6509 1
    6730     6477     6510 1
    6731     6478     6479 1
    6732     6478     6511 1
    6733     6478     6512 1
    6734     6479     6480 1
    6735     6479     6513 1
    6736     6479     6514 1
    6737     6480     6481 1
    6738     6480     6515 1
    6739     6480     6516 1
    6740     6481     6482 1
    6741     6481     6517 1
    6742     6481     6518 1
    6743     6482     6483 1
    6744     6482     6519 1
    6745     6482     6520 1
    6746     6483     6484 1
    6747     6483     6521 1
    6748     6483     6522 1
    6749     6484     6523 1
    6750     6484     6524 1
    6751     6484     6525 1
    6752     6526     6527 1
    6753     6526     6533 1
    6754     6526     6549 1
    6755     6526     6610 1
    6756     6527     6528 1
    6757     6527     6531 1
    6758     6528     6529 1
    6759     6528     6532 1
    6760     6529     6530 1
    6761     6530     6531 1
    6762     6531     6537 1
    6763     6532     6533 1
    6764     6532     6536 1
    6765     6533     6534 1
    6766     6534     6535 1
    6767     6534     6538 1
    6768     6535     6536 1
    6769     6535     6541 1
    6770     6539     6540 1
    6771     6539     6547 1
    6772     6540     6541 1
    6773     6540     6548 1
    6774     6541     6542 1
    6775     6542     6543 1
    6776     6542     6546 1
    6777     6543     6544 1
    6778     6544     6545 1
    6779     6545     6546 1
    6780     6546     6547 1
    6781     6547     6675 1
    6782     6549     6550 1
    6783     6549     6569 1
    6784     6549     6570 1
    6785     6550     6551 1
    6786     6550     6561 1
    6787     6550     6571 1
    6788     6551     6552 1
    6789     6551     6572 1
    6790     6551     6573 1
    6791     6552     6553 1
    6792     6552     6574 1
    6793     6552     6575 1
    6794     6553     6554 1
    6795     6553     6576 1
    6796     6553     6577 1
    6797     6554     6555 1
    6798     6554     6578 1
    6799     6554     6579 1
    6800     6555     6556 1
    6801     6555     6580 1
    6802     6555     6581 1
    6803     6556     6557 1
    6804     6556     6582 1
    6805     6556     6583 1
    6806     6557     6558 1
    6807     6557     6584 1
    6808     6557     6585 1
    6809     6558     6559 1
    6810     6558     6586 1
    6811     6558     6587 1
    6812     6559     6560 1
    6813     6559     6588 1
    6814     6559     6589 1
    6815     6560     6590 1
    6816     6560     6591 1
    6817     6560     6592 1
    6818     6561     6562 1
    6819     6561     6593 1
    6820     6561     6594 1
    6821     6562     6563 1
    6822     6562     6595 1
    6823     6562     6596 1
    6824     6563     6564 1
    6825     6563     6597 1
    6826     6563     6598 1
    6827     6564     6565 1
    6828     6564     6599 1
    6829     6564     6600 1
    6830     6565     6566 1
    6831     6565     6601 1
    6832     6565     6602 1
    6833     6566     6567 1
    6834     6566     6603 1
    6835     6566     6604 1
    6836     6567     6568 1
    6837     6567     6605 1
    6838     6567     6606 1
    6839     6568     6607 1
    6840     6568     6608 1
    6841     6568     6609 1
    6842     6610     6611 1
    6843     6610     6630 1
    6844     6610     6631 1
    6845     6611     6612 1
    6846     6611     6622 1
    6847     6611     6632 1
    6848     6612     6613 1
    6849     6612     6633 1
    6850     6612     6634 1
    6851     6613     6614 1
    6852     6613     6635 1
    6853     6613     6636 1
    6854     6614     6615 1
    6855     6614     6637 1
    6856     6614     6638 1
    6857     6615     6616 1
    6858     6615     6639 1
    6859     6615     6640 1
    6860     6616     6617 1
    6861     6616     6641 1
    6862     6616     6642 1
    6863     6617     6618 1
    6864     6617     6643 1
    6865     6617     6644 1
    6866     6618     6619 1
    6867     6618     6645 1
    6868     6618     6646 1
    6869     6619     6620 1
    6870     6619     6647 1
    6871     6619     6648 1
    6872     6620     6621 1
    6873     6620     6649 1
    6874     6620     6650 1
    6875     6621     6651 1
    6876     6621     6652 1
    6877     6621     6653 1
    6878     6622     6623 1
    6879     6622     6654 1
    6880     6622     6655 1
    6881     6623     6624 1
    6882     6623     6656 1
    6883     6623     6657 1
    6884     6624     6625 1
    6885     6624     6658 1
    6886     6624     6659 1
    6887     6625     6626 1
    6888     6625     6660 1
    6889     6625     6661 1
    6890     6626     6627 1
    6891     6626     6662 1
    6892     6626     6663 1
    6893     6627     6628 1
    6894     6627     6664 1
    6895     6627     6665 1
    6896     6628     6629 1
    6897     6628     6666 1
    6898     6628     6667 1
    6899     6629     6668 1
    6900     6629     6669 1
    6901     6629     6670 1
    6902     6671     6672 1
    6903     6671     6678 1
    6904     6671     6694 1
    6905     6671     6755 1
    6906     6672     6673 1
    6907     6672     6676 1
    6908     6673     6674 1
    6909     6673     6677 1
    6910     6674     6675 1
    6911     6675     6676 1
    6912     6676     6682 1
    6913     6677     6678 1
    6914     6677     6681 1
    6915     6678     6679 1
    6916     6679     6680 1
    6917     6679     6683 1
    6918     6680     6681 1
    6919     6680     6686 1
    6920     6684     6685 1
    6921     6684     6692 1
    6922     6685     6686 1
    6923     6685     6693 1
    6924     6686     6687 1
    6925     6687     6688 1
    6926     6687     6691 1
    6927     6688     6689 1
    6928     6689     6690 1
    6929     6690     6691 1
    6930     6691     6692 1
    6931     6692     6820 1
    6932     6694     6695 1
    6933     6694     6714 1
    6934     6694     6715 1
    6935     6695     6696 1
    6936     6695     6706 1
    6937     6695     6716 1
    6938     6696     6697 1
    6939     6696     6717 1
    6940     6696     6718 1
    6941     6697     6698 1
    6942     6697     6719 1
    6943     6697     6720 1
    6944     6698     6699 1
    6945     6698     6721 1
    6946     6698     6722 1
    6947     6699     6700 1
    6948     6699     6723 1
    6949     6699     6724 1
    6950     6700     6701 1
    6951     6700     6725 1
    6952     6700     6726 1
    6953     6701     6702 1
    6954     6701     6727 1
    6955     6701     6728 1
    6956     6702     6703 1
    6957     6702     6729 1
    6958     6702     6730 1
    6959     6703     6704 1
    6960     6703     6731 1
    6961     6703     6732 1
    6962     6704     6705 1
    6963     6704     6733 1
    6964     6704     6734 1
    6965     6705     6735 1
    6966     6705     6736 1
    6967     6705     6737 1
    6968     6706     6707 1
    6969     6706     6738 1
    6970     6706     6739 1
    6971     6707     6708 1
    6972     6707     6740 1
    6973     6707     6741 1
    6974     6708     6709 1
    6975     6708     6742 1
    6976     6708     6743 1
    6977     6709     6710 1
    6978     6709     6744 1
    6979     6709     6745 1
    6980     6710     6711 1
    6981     6710     6746 1
    6982     6710     6747 1
    6983     6711     6712 1
    6984     6711     6748 1
    6985     6711     6749 1
    6986     6712     6713 1
    6987     6712     6750 1
    6988     6712     6751 1
    6989     6713     6752 1
    6990     6713     6753 1
    6991     6713     6754 1
    6992     6755     6756 1
    6993     6755     6775 1
    6994     6755     6776 1
    6995     6756     6757 1
    6996     6756     6767 1
    6997     6756     6777 1
    6998     6757     6758 1
    6999     6757     6778 1
    7000     6757     6779 1
    7001     6758     6759 1
    7002     6758     6780 1
    7003     6758     6781 1
    7004     6759     6760 1
    7005     6759     6782 1
    7006     6759     6783 1
    7007     6760     6761 1
    7008     6760     6784 1
    7009     6760     6785 1
    7010     6761     6762 1
    7011     6761     6786 1
    7012     6761     6787 1
    7013     6762     6763 1
    7014     6762     6788 1
    7015     6762     6789 1
    7016     6763     6764 1
    7017     6763     6790 1
    7018     6763     6791 1
    7019     6764     6765 1
    7020     6764     6792 1
    7021     6764     6793 1
    7022     6765     6766 1
    7023     6765     6794 1
    7024     6765     6795 1
    7025     6766     6796 1
    7026     6766     6797 1
    7027     6766     6798 1
    7028     6767     6768 1
    7029     6767     6799 1
    7030     6767     6800 1
    7031     6768     6769 1
    7032     6768     6801 1
    7033     6768     6802 1
    7034     6769     6770 1
    7035     6769     6803 1
    7036     6769     6804 1
    7037     6770     6771 1
    7038     6770     6805 1
    7039     6770     6806 1
    7040     6771     6772 1
    7041     6771     6807 1
    7042     6771     6808 1
    7043     6772     6773 1
    7044     6772     6809 1
    7045     6772     6810 1
    7046     6773     6774 1
    7047     6773     6811 1
    7048     6773     6812 1
    7049     6774     6813 1
    7050     6774     6814 1
    7051     6774     6815 1
    7052     6816     6817 1
    7053     6816     6823 1
    7054     6816     6839 1
    7055     6816     6900 1
    7056     6817     6818 1
    7057     6817     6821 1
    7058     6818     6819 1
    7059     6818     6822 1
    7060     6819     6820 1
    7061     6820     6821 1
    7062     6821     6827 1
    7063     6822     6823 1
    7064     6822     6826 1
    7065     6823     6824 1
    7066     6824     6825 1
    7067     6824     6828 1
    7068     6825     6826 1
    7069     6825     6831 1
    7070     6829     6830 1
    7071     6829     6837 1
    7072     6830     6831 1
    7073     6830     6838 1
    7074     6831     6832 1
    7075     6832     6833 1
    7076     6832     6836 1
    7077     6833     6834 1
    7078     6834     6835 1
    7079     6835     6836 1
    7080     6836     6837 1
    7081     6837     6965 1
    7082     6839     6840 1
    7083     6839     6859 1
    7084     6839     6860 1
    7085     6840     6841 1
    7086     6840     6851 1
    7087     6840     6861 1
    7088     6841     6842 1
    7089     6841     6862 1
    7090     6841     6863 1
    7091     6842     6843 1
    7092     6842     6864 1
    7093     6842     6865 1
    7094     6843     6844 1
    7095     6843     6866 1
    7096     6843     6867 1
    7097     6844     6845 1
    7098     6844     6868 1
    7099     6844     6869 1
    7100     6845     6846 1
    7101     6845     6870 1
    7102     6845     6871 1
    7103     6846     6847 1
    7104     6846     6872 1
    7105     6846     6873 1
    7106     6847     6848 1
    7107     6847     6874 1
    7108     6847     6875 1
    7109     6848     6849 1
    7110     6848     6876 1
    7111     6848     6877 1
    7112     6849     6850 1
    7113     6849     6878 1
    7114     6849     6879 1
    7115     6850     6880 1
    7116     6850     6881 1
    7117     6850     6882 1
    7118     6851     6852 1
    7119     6851     6883 1
    7120     6851     6884 1
    7121     6852     6853 1
    7122     6852     6885 1
    7123     6852     6886 1
    7124     6853     6854 1
    7125     6853     6887 1
    7126     6853     6888 1
    7127     6854     6855 1
    7128     6854     6889 1
    7129     6854     6890 1
    7130     6855     6856 1
    7131     6855     6891 1
    7132     6855     6892 1
    7133     6856     6857 1
    7134     6856     6893 1
    7135     6856     6894 1
    7136     6857     6858 1
    7137     6857     6895 1
    7138     6857     6896 1
    7139     6858     6897 1
    7140     6858     6898 1
    7141     6858     6899 1
    7142     6900     6901 1
    7143     6900     6920 1
    7144     6900     6921 1
    7145     6901     6902 1
    7146     6901     6912 1
    7147     6901     6922 1
    7148     6902     6903 1
    7149     6902     6923 1
    7150     6902     6924 1
    7151     6903     6904 1
    7152     6903     6925 1
    7153     6903     6926 1
    7154     6904     6905 1
    7155     6904     6927 1
    7156     6904     6928 1
    7157     6905     6906 1
    7158     6905     6929 1
    7159     6905     6930 1
    7160     6906     6907 1
    7161     6906     6931 1
    7162     6906     6932 1
    7163     6907     6908 1
    7164     6907     6933 1
    7165     6907     6934 1
    7166     6908     6909 1
    7167     6908     6935 1
    7168     6908     6936 1
    7169     6909     6910 1
    7170     6909     6937 1
    7171     6909     6938 1
    7172     6910     6911 1
    7173     6910     6939 1
    7174     6910     6940 1
    7175     6911     6941 1
    7176     6911     6942 1
    7177     6911     6943 1
    7178     6912     6913 1
    7179     6912     6944 1
    7180     6912     6945 1
    7181     6913     6914 1
    7182     6913     6946 1
    7183     6913     6947 1
    7184     6914     6915 1
    7185     6914     6948 1
    7186     6914     6949 1
    7187     6915     6916 1
    7188     6915     6950 1
    7189     6915     6951 1
    7190     6916     6917 1
    7191     6916     6952 1
    7192     6916     6953 1
    7193     6917     6918 1
    7194     6917     6954 1
    7195     6917     6955 1
    7196     6918     6919 1
    7197     6918     6956 1
    7198     6918     6957 1
    7199     6919     6958 1
    7200     6919     6959 1
    7201     6919     6960 1
    7202     6961     6962 1
    7203     6961     6968 1
    7204     6961     6984 1
    7205     6961     7045 1
    7206     6962     6963 1
    7207     6962     6966 1
    7208     6963     6964 1
    7209     6963     6967 1
    7210     6964     6965 1
    7211     6965     6966 1
    7212     6966     6972 1
    7213     6967     6968 1
    7214     6967     6971 1
    7215     6968     6969 1
    7216     6969     6970 1
    7217     6969     6973 1
    7218     6970     6971 1
    7219     6970     6976 1
    7220     6974     6975 1
    7221     6974     6982 1
    7222     6975     6976 1
    7223     6975     6983 1
    7224     6976     6977 1
    7225     6977     6978 1
    7226     6977     6981 1
    7227     6978     6979 1
    7228     6979     6980 1
    7229     6980     6981 1
    7230     6981     6982 1
    7231     6982     7110 1
    7232     6984     6985 1
    7233     6984     7004 1
    7234     6984     7005 1
    7235     6985     6986 1
    7236     6985     6996 1
    7237     6985     7006 1
    7238     6986     6987 1
    7239     6986     7007 1
    7240     6986     7008 1
    7241     6987     6988 1
    7242     6987     7009 1
    7243     6987     7010 1
    7244     6988     6989 1
    7245     6988     7011 1
    7246     6988     7012 1
    7247     6989     6990 1
    7248     6989     7013 1
    7249     6989     7014 1
    7250     6990     6991 1
    7251     6990     7015 1
    7252     6990     7016 1
    7253     6991     6992 1
    7254     6991     7017 1
    7255     6991     7018 1
    7256     6992     6993 1
    7257     6992     7019 1
    7258     6992     7020 1
    7259     6993     6994 1
    7260     6993     7021 1
    7261     6993     7022 1
    7262     6994     6995 1
    7263     6994     7023 1
    7264     6994     7024 1
    7265     6995     7025 1
    7266     6995     7026 1
    7267     6995     7027 1
    7268     6996     6997 1
    7269     6996     7028 1
    7270     6996     7029 1
    7271     6997     6998 1
    7272     6997     7030 1
    7273     6997     7031 1
    7274     6998     6999 1
    7275     6998     7032 1
    7276     6998     7033 1
    7277     6999     7000 1
    7278     6999     7034 1
    7279     6999     7035 1
    7280     7000     7001 1
    7281     7000     7036 1
    7282     7000     7037 1
    7283     7001     7002 1
    7284     7001     7038 1
    7285     7001     7039 1
    7286     7002     7003 1
    7287     7002     7040 1
    7288     7002     7041 1
    7289     7003     7042 1
    7290     7003     7043 1
    7291     7003     7044 1
    7292     7045     7046 1
    7293     7045     7065 1
    7294     7045     7066 1
    7295     7046     7047 1
    7296     7046     7057 1
    7297     7046     7067 1
    7298     7047     7048 1
    7299     7047     7068 1
    7300     7047     7069 1
    7301     7048     7049 1
    7302     7048     7070 1
    7303     7048     7071 1
    7304     7049     7050 1
    7305     7049     7072 1
    7306     7049     7073 1
    7307     7050     7051 1
    7308     7050     7074 1
    7309     7050     7075 1
    7310     7051     7052 1
    7311     7051     7076 1
    7312     7051     7077 1
    7313     7052     7053 1
    7314     7052     7078 1
    7315     7052     7079 1
    7316     7053     7054 1
    7317     7053     7080 1
    7318     7053     7081 1
    7319     7054     7055 1
    7320     7054     7082 1
    7321     7054     7083 1
    7322     7055     7056 1
    7323     7055     7084 1
    7324     7055     7085 1
    7325     7056     7086 1
    7326     7056     7087 1
    7327     7056     7088 1
    7328     7057     7058 1
    7329     7057     7089 1
    7330     7057     7090 1
    7331     7058     7059 1
    7332     7058     7091 1
    7333     7058     7092 1
    7334     7059     7060 1
    7335     7059     7093 1
    7336     7059     7094 1
    7337     7060     7061 1
    7338     7060     7095 1
    7339     7060     7096 1
    7340     7061     7062 1
    7341     7061     7097 1
    7342     7061     7098 1
    7343     7062     7063 1
    7344     7062     7099 1
    7345     7062     7100 1
    7346     7063     7064 1
    7347     7063     7101 1
    7348     7063     7102 1
    7349     7064     7103 1
    7350     7064     7104 1
    7351     7064     7105 1
    7352     7106     7107 1
    7353     7106     7113 1
    7354     7106     7129 1
    7355     7106     7190 1
    7356     7107     7108 1
    7357     7107     7111 1
    7358     7108     7109 1
    7359     7108     7112 1
    7360     7109     7110 1
    7361     7110     7111 1
    7362     7111     7117 1
    7363     7112     7113 1
    7364     7112     7116 1
    7365     7113     7114 1
    7366     7114     7115 1
    7367     7114     7118 1
    7368     7115     7116 1
    7369     7115     7121 1
    7370     7119     7120 1
    7371     7119     7127 1
    7372     7120     7121 1
    7373     7120     7128 1
    7374     7121     7122 1
    7375     7122     7123 1
    7376     7122     7126 1
    7377     7123     7124 1
    7378     7124     7125 1
    7379     7125     7126 1
    7380     7126     7127 1
    7381     7127     7255 1
    7382     7129     7130 1
    7383     7129     7149 1
    7384     7129     7150 1
    7385     7130     7131 1
    7386     7130     7141 1
    7387     7130     7151 1
    7388     7131     7132 1
    7389     7131     7152 1
    7390     7131     7153 1
    7391     7132     7133 1
    7392     7132     7154 1
    7393     7132     7155 1
    7394     7133     7134 1
    7395     7133     7156 1
    7396     7133     7157 1
    7397     7134     7135 1
    7398     7134     7158 1
    7399     7134     7159 1
    7400     7135     7136 1
    7401     7135     7160 1
    7402     7135     7161 1
    7403     7136     7137 1
    7404     7136     7162 1
    7405     7136     7163 1
    7406     7137     7138 1
    7407     7137     7164 1
    7408     7137     7165 1
    7409     7138     7139 1
    7410     7138     7166 1
    7411     7138     7167 1
    7412     7139     7140 1
    7413     7139     7168 1
    7414     7139     7169 1
    7415     7140     7170 1
    7416     7140     7171 1
    7417     7140     7172 1
    7418     7141     7142 1
    7419     7141     7173 1
    7420     7141     7174 1
    7421     7142     7143 1
    7422     7142     7175 1
    7423     7142     7176 1
    7424     7143     7144 1
    7425     7143     7177 1
    7426     7143     7178 1
    7427     7144     7145 1
    7428     7144     7179 1
    7429     7144     7180 1
    7430     7145     7146 1
    7431     7145     7181 1
    7432     7145     7182 1
    7433     7146     7147 1
    7434     7146     7183 1
    7435     7146     7184 1
    7436     7147     7148 1
    7437     7147     7185 1
    7438     7147     7186 1
    7439     7148     7187 1
    7440     7148     7188 1
    7441     7148     7189 1
    7442     7190     7191 1
    7443     7190     7210 1
    7444     7190     7211 1
    7445     7191     7192 1
    7446     7191     7202 1
    7447     7191     7212 1
    7448     7192     7193 1
    7449     7192     7213 1
    7450     7192     7214 1
    7451     7193     7194 1
    7452     7193     7215 1
    7453     7193     7216 1
    7454     7194     7195 1
    7455     7194     7217 1
    7456     7194     7218 1
    7457     7195     7196 1
    7458     7195     7219 1
    7459     7195     7220 1
    7460     7196     7197 1
    7461     7196     7221 1
    7462     7196     7222 1
    7463     7197     7198 1
    7464     7197     7223 1
    7465     7197     7224 1
    7466     7198     7199 1
    7467     7198     7225 1
    7468     7198     7226 1
    7469     7199     7200 1
    7470     7199     7227 1
    7471     7199     7228 1
    7472     7200     7201 1
    7473     7200     7229 1
    7474     7200     7230 1
    7475     7201     7231 1
    7476     7201     7232 1
    7477     7201     7233 1
    7478     7202     7203 1
    7479     7202     7234 1
    7480     7202     7235 1
    7481     7203     7204 1
    7482     7203     7236 1
    7483     7203     7237 1
    7484     7204     7205 1
    7485     7204     7238 1
    7486     7204     7239 1
    7487     7205     7206 1
    7488     7205     7240 1
    7489     7205     7241 1
    7490     7206     7207 1
    7491     7206     7242 1
    7492     7206     7243 1
    7493     7207     7208 1
    7494     7207     7244 1
    7495     7207     7245 1
    7496     7208     7209 1
    7497     7208     7246 1
    7498     7208     7247 1
    7499     7209     7248 1
    7500     7209     7249 1
    7501     7209     7250 1
    7502     7251     7252 1
    7503     7251     7258 1
    7504     7251     7274 1
    7505     7251     7335 1
    7506     7252     7253 1
    7507     7252     7256 1
    7508     7253     7254 1
    7509     7253     7257 1
    7510     7254     7255 1
    7511     7255     7256 1
    7512     7256     7262 1
    7513     7257     7258 1
    7514     7257     7261 1
    7515     7258     7259 1
    7516     7259     7260 1
    7517     7259     7263 1
    7518     7260     7261 1
    7519     7260     7266 1
    7520     7264     7265 1
    7521     7264     7272 1
    7522     7265     7266 1
    7523     7265     7273 1
    7524     7266     7267 1
    7525     7267     7268 1
    7526     7267     7271 1
    7527     7268     7269 1
    7528     7269     7270 1
    7529     7270     7271 1
    7530     7271     7272 1
    7531     7272     7400 1
    7532     7274     7275 1
    7533     7274     7294 1
    7534     7274     7295 1
    7535     7275     7276 1
    7536     7275     7286 1
    7537     7275     7296 1
    7538     7276     7277 1
    7539     7276     7297 1
    7540     7276     7298 1
    7541     7277     7278 1
    7542     7277     7299 1
    7543     7277     7300 1
    7544     7278     7279 1
    7545     7278     7301 1
    7546     7278     7302 1
    7547     7279     7280 1
    7548     7279     7303 1
    7549     7279     7304 1
    7550     7280     7281 1
    7551     7280     7305 1
    7552     7280     7306 1
    7553     7281     7282 1
    7554     7281     7307 1
    7555     7281     7308 1
    7556     7282     7283 1
    7557     7282     7309 1
    7558     7282     7310 1
    7559     7283     7284 1
    7560     7283     7311 1
    7561     7283     7312 1
    7562     7284     7285 1
    7563     7284     7313 1
    7564     7284     7314 1
    7565     7285     7315 1
    7566     7285     7316 1
    7567     7285     7317 1
    7568     7286     7287 1
    7569     7286     7318 1
    7570     7286     7319 1
    7571     7287     7288 1
    7572     7287     7320 1
    7573     7287     7321 1
    7574     7288     7289 1
    7575     7288     7322 1
    7576     7288     7323 1
    7577     7289     7290 1
    7578     7289     7324 1
    7579     7289     7325 1
    7580     7290     7291 1
    7581     7290     7326 1
    7582     7290     7327 1
    7583     7291     7292 1
    7584     7291     7328 1
    7585     7291     7329 1
    7586     7292     7293 1
    7587     7292     7330 1
    7588     7292     7331 1
    7589     7293     7332 1
    7590     7293     7333 1
    7591     7293     7334 1
    7592     7335     7336 1
    7593     7335     7355 1
    7594     7335     7356 1
    7595     7336     7337 1
    7596     7336     7347 1
    7597     7336     7357 1
    7598     7337     7338 1
    7599     7337     7358 1
    7600     7337     7359 1
    7601     7338     7339 1
    7602     7338     7360 1
    7603     7338     7361 1
    7604     7339     7340 1
    7605     7339     7362 1
    7606     7339     7363 1
    7607     7340     7341 1
    7608     7340     7364 1
    7609     7340     7365 1
    7610     7341     7342 1
    7611     7341     7366 1
    7612     7341     7367 1
    7613     7342     7343 1
    7614     7342     7368 1
    7615     7342     7369 1
    7616     7343     7344 1
    7617     7343     7370 1
    7618     7343     7371 1
    7619     7344     7345 1
    7620     7344     7372 1
    7621     7344     7373 1
    7622     7345     7346 1
    7623     7345     7374 1
    7624     7345     7375 1
    7625     7346     7376 1
    7626     7346     7377 1
    7627     7346     7378 1
    7628     7347     7348 1
    7629     7347     7379 1
    7630     7347     7380 1
    7631     7348     7349 1
    7632     7348     7381 1
    7633     7348     7382 1
    7634     7349     7350 1
    7635     7349     7383 1
    7636     7349     7384 1
    7637     7350     7351 1
    7638     7350     7385 1
    7639     7350     7386 1
    7640     7351     7352 1
    7641     7351     7387 1
    7642     7351     7388 1
    7643     7352     7353 1
    7644     7352     7389 1
    7645     7352     7390 1
    7646     7353     7354 1
    7647     7353     7391 1
    7648     7353     7392 1
    7649     7354     7393 1
    7650     7354     7394 1
    7651     7354     7395 1
    7652     7396     7397 1
    7653     7396     7403 1
    7654     7396     7419 1
    7655     7396     7480 1
    7656     7397     7398 1
    7657     7397     7401 1
    7658     7398     7399 1
    7659     7398     7402 1
    7660     7399     7400 1
    7661     7400     7401 1
    7662     7401     7407 1
    7663     7402     7403 1
    7664     7402     7406 1
    7665     7403     7404 1
    7666     7404     7405 1
    7667     7404     7408 1
    7668     7405     7406 1
    7669     7405     7411 1
    7670     7409     7410 1
    7671     7409     7417 1
    7672     7410     7411 1
    7673     7410     7418 1
    7674     7411     7412 1
    7675     7412     7413 1
    7676     7412     7416 1
    7677     7413     7414 1
    7678     7414     7415 1
    7679     7415     7416 1
    7680     7416     7417 1
    7681     7417     7545 1
    7682     7419     7420 1
    7683     7419     7439 1
    7684     7419     7440 1
    7685     7420     7421 1
    7686     7420     7431 1
    7687     7420     7441 1
    7688     7421     7422 1
    7689     7421     7442 1
    7690     7421     7443 1
    7691     7422     7423 1
    7692     7422     7444 1
    7693     7422     7445 1
    7694     7423     7424 1
    7695     7423     7446 1
    7696     7423     7447 1
    7697     7424     7425 1
    7698     7424     7448 1
    7699     7424     7449 1
    7700     7425     7426 1
    7701     7425     7450 1
    7702     7425     7451 1
    7703     7426     7427 1
    7704     7426     7452 1
    7705     7426     7453 1
    7706     7427     7428 1
    7707     7427     7454 1
    7708     7427     7455 1
    7709     7428     7429 1
    7710     7428     7456 1
    7711     7428     7457 1
    7712     7429     7430 1
    7713     7429     7458 1
    7714     7429     7459 1
    7715     7430     7460 1
    7716     7430     7461 1
    7717     7430     7462 1
    7718     7431     7432 1
    7719     7431     7463 1
    7720     7431     7464 1
    7721     7432     7433 1
    7722     7432     7465 1
    7723     7432     7466 1
    7724     7433     7434 1
    7725     7433     7467 1
    7726     7433     7468 1
    7727     7434     7435 1
    7728     7434     7469 1
    7729     7434     7470 1
    7730     7435     7436 1
    7731     7435     7471 1
    7732     7435     7472 1
    7733     7436     7437 1
    7734     7436     7473 1
    7735     7436     7474 1
    7736     7437     7438 1
    7737     7437     7475 1
    7738     7437     7476 1
    7739     7438     7477 1
    7740     7438     7478 1
    7741     7438     7479 1
    7742     7480     7481 1
    7743     7480     7500 1
    7744     7480     7501 1
    7745     7481     7482 1
    7746     7481     7492 1
    7747     7481     7502 1
    7748     7482     7483 1
    7749     7482     7503 1
    7750     7482     7504 1
    7751     7483     7484 1
    7752     7483     7505 1
    7753     7483     7506 1
    7754     7484     7485 1
    7755     7484     7507 1
    7756     7484     7508 1
    7757     7485     7486 1
    7758     7485     7509 1
    7759     7485     7510 1
    7760     7486     7487 1
    7761     7486     7511 1
    7762     7486     7512 1
    7763     7487     7488 1
    7764     7487     7513 1
    7765     7487     7514 1
    7766     7488     7489 1
    7767     7488     7515 1
    7768     7488     7516 1
    7769     7489     7490 1
    7770     7489     7517 1
    7771     7489     7518 1
    7772     7490     7491 1
    7773     7490     7519 1
    7774     7490     7520 1
    7775     7491     7521 1
    7776     7491     7522 1
    7777     7491     7523 1
    7778     7492     7493 1
    7779     7492     7524 1
    7780     7492     7525 1
    7781     7493     7494 1
    7782     7493     7526 1
    7783     7493     7527 1
    7784     7494     7495 1
    7785     7494     7528 1
    7786     7494     7529 1
    7787     7495     7496 1
    7788     7495     7530 1
    7789     7495     7531 1
    7790     7496     7497 1
    7791     7496     7532 1
    7792     7496     7533 1
    7793     7497     7498 1
    7794     7497     7534 1
    7795     7497     7535 1
    7796     7498     7499 1
    7797     7498     7536 1
    7798     7498     7537 1
    7799     7499     7538 1
    7800     7499     7539 1
    7801     7499     7540 1
    7802     7541     7542 1
    7803     7541     7548 1
    7804     7541     7564 1
    7805     7541     7625 1
    7806     7542     7543 1
    7807     7542     7546 1
    7808     7543     7544 1
    7809     7543     7547 1
    7810     7544     7545 1
    7811     7545     7546 1
    7812     7546     7552 1
    7813     7547     7548 1
    7814     7547     7551 1
    7815     7548     7549 1
    7816     7549     7550 1
    7817     7549     7553 1
    7818     7550     7551 1
    7819     7550     7556 1
    7820     7554     7555 1
    7821     7554     7562 1
    7822     7555     7556 1
    7823     7555     7563 1
    7824     7556     7557 1
    7825     7557     7558 1
    7826     7557     7561 1
    7827     7558     7559 1
    7828     7559     7560 1
    7829     7560     7561 1
    7830     7561     7562 1
    7831     7562     7690 1
    7832     7564     7565 1
    7833     7564     7584 1
    7834     7564     7585 1
    7835     7565     7566 1
    7836     7565     7576 1
    7837     7565     7586 1
    7838     7566     7567 1
    7839     7566     7587 1
    7840     7566     7588 1
    7841     7567     7568 1
    7842     7567     7589 1
    7843     7567     7590 1
    7844     7568     7569 1
    7845     7568     7591 1
    7846     7568     7592 1
    7847     7569     7570 1
    7848     7569     7593 1
    7849     7569     7594 1
    7850     7570     7571 1
    7851     7570     7595 1
    7852     7570     7596 1
    7853     7571     7572 1
    7854     7571     7597 1
    7855     7571     7598 1
    7856     7572     7573 1
    7857     7572     7599 1
    7858     7572     7600 1
    7859     7573     7574 1
    7860     7573     7601 1
    7861     7573     7602 1
    7862     7574     7575 1
    7863     7574     7603 1
    7864     7574     7604 1
    7865     7575     7605 1
    7866     7575     7606 1
    7867     7575     7607 1
    7868     7576     7577 1
    7869     7576     7608 1
    7870     7576     7609 1
    7871     7577     7578 1
    7872     7577     7610 1
    7873     7577     7611 1
    7874     7578     7579 1
    7875     7578     7612 1
    7876     7578     7613 1
    7877     7579     7580 1
    7878     7579     7614 1
    7879     7579     7615 1
    7880     7580     7581 1
    7881     7580     7616 1
    7882     7580     7617 1
    7883     7581     7582 1
    7884     7581     7618 1
    7885     7581     7619 1
    7886     7582     7583 1
    7887     7582     7620 1
    7888     7582     7621 1
    7889     7583     7622 1
    7890     7583     7623 1
    7891     7583     7624 1
    7892     7625     7626 1
    7893     7625     7645 1
    7894     7625     7646 1
    7895     7626     7627 1
    7896     7626     7637 1
    7897     7626     7647 1
    7898     7627     7628 1
    7899     7627     7648 1
    7900     7627     7649 1
    7901     7628     7629 1
    7902     7628     7650 1
    7903     7628     7651 1
    7904     7629     7630 1
    7905     7629     7652 1
    7906     7629     7653 1
    7907     7630     7631 1
    7908     7630     7654 1
    7909     7630     7655 1
    7910     7631     7632 1
    7911     7631     7656 1
    7912     7631     7657 1
    7913     7632     7633 1
    7914     7632     7658 1
    7915     7632     7659 1
    7916     7633     7634 1
    7917     7633     7660 1
    7918     7633     7661 1
    7919     7634     7635 1
    7920     7634     7662 1
    7921     7634     7663 1
    7922     7635     7636 1
    7923     7635     7664 1
    7924     7635     7665 1
    7925     7636     7666 1
    7926     7636     7667 1
    7927     7636     7668 1
    7928     7637     7638 1
    7929     7637     7669 1
    7930     7637     7670 1
    7931     7638     7639 1
    7932     7638     7671 1
    7933     7638     7672 1
    7934     7639     7640 1
    7935     7639     7673 1
    7936     7639     7674 1
    7937     7640     7641 1
    7938     7640     7675 1
    7939     7640     7676 1
    7940     7641     7642 1
    7941     7641     7677 1
    7942     7641     7678 1
    7943     7642     7643 1
    7944     7642     7679 1
    7945     7642     7680 1
    7946     7643     7644 1
    7947     7643     7681 1
    7948     7643     7682 1
    7949     7644     7683 1
    7950     7644     7684 1
    7951     7644     7685 1
    7952     7686     7687 1
    7953     7686     7693 1
    7954     7686     7709 1
    7955     7686     7770 1
    7956     7687     7688 1
    7957     7687     7691 1
    7958     7688     7689 1
    7959     7688     7692 1
    7960     7689     7690 1
    7961     7690     7691 1
    7962     7691     7697 1
    7963     7692     7693 1
    7964     7692     7696 1
    7965     7693     7694 1
    7966     7694     7695 1
    7967     7694     7698 1
    7968     7695     7696 1
    7969     7695     7701 1
    7970     7699     7700 1
    7971     7699     7707 1
    7972     7700     7701 1
    7973     7700     7708 1
    7974     7701     7702 1
    7975     7702     7703 1
    7976     7702     7706 1
    7977     7703     7704 1
    7978     7704     7705 1
    7979     7705     7706 1
    7980     7706     7707 1
    7981     7707     7835 1
    7982     7709     7710 1
    7983     7709     7729 1
    7984     7709     7730 1
    7985     7710     7711 1
    7986     7710     7721 1
    7987     7710     7731 1
    7988     7711     7712 1
    7989     7711     7732 1
    7990     7711     7733 1
    7991     7712     7713 1
    7992     7712     7734 1
    7993     7712     7735 1
    7994     7713     7714 1
    7995     7713     7736 1
    7996     7713     7737 1
    7997     7714     7715 1
    7998     7714     7738 1
    7999     7714     7739 1
    8000     7715     7716 1
    8001     7715     7740 1
    8002     7715     7741 1
    8003     7716     7717 1
    8004     7716     7742 1
    8005     7716     7743 1
    8006     7717     7718 1
    8007     7717     7744 1
    8008     7717     7745 1
    8009     7718     7719 1
    8010     7718     7746 1
    8011     7718     7747 1
    8012     7719     7720 1
    8013     7719     7748 1
    8014     7719     7749 1
    8015     7720     7750 1
    8016     7720     7751 1
    8017     7720     7752 1
    8018     7721     7722 1
    8019     7721     7753 1
    8020     7721     7754 1
    8021     7722     7723 1
    8022     7722     7755 1
    8023     7722     7756 1
    8024     7723     7724 1
    8025     7723     7757 1
    8026     7723     7758 1
    8027     7724     7725 1
    8028     7724     7759 1
    8029     7724     7760 1
    8030     7725     7726 1
    8031     7725     7761 1
    8032     7725     7762 1
    8033     7726     7727 1
    8034     7726     7763 1
    8035     7726     7764 1
    8036     7727     7728 1
    8037     7727     7765 1
    8038     7727     7766 1
    8039     7728     7767 1
    8040     7728     7768 1
    8041     7728     7769 1
    8042     7770     7771 1
    8043     7770     7790 1
    8044     7770     7791 1
    8045     7771     7772 1
    8046     7771     7782 1
    8047     7771     7792 1
    8048     7772     7773 1
    8049     7772     7793 1
    8050     7772     7794 1
    8051     7773     7774 1
    8052     7773     7795 1
    8053     7773     7796 1
    8054     7774     7775 1
    8055     7774     7797 1
    8056     7774     7798 1
    8057     7775     7776 1
    8058     7775     7799 1
    8059     7775     7800 1
    8060     7776     7777 1
    8061     7776     7801 1
    8062     7776     7802 1
    8063     7777     7778 1
    8064     7777     7803 1
    8065     7777     7804 1
    8066     7778     7779 1
    8067     7778     7805 1
    8068     7778     7806 1
    8069     7779     7780 1
    8070     7779     7807 1
    8071     7779     7808 1
    8072     7780     7781 1
    8073     7780     7809 1
    8074     7780     7810 1
    8075     7781     7811 1
    8076     7781     7812 1
    8077     7781     7813 1
    8078     7782     7783 1
    8079     7782     7814 1
    8080     7782     7815 1
    8081     7783     7784 1
    8082     7783     7816 1
    8083     7783     7817 1
    8084     7784     7785 1
    8085     7784     7818 1
    8086     7784     7819 1
    8087     7785     7786 1
    8088     7785     7820 1
    8089     7785     7821 1
    8090     7786     7787 1
    8091     7786     7822 1
    8092     7786     7823 1
    8093     7787     7788 1
    8094     7787     7824 1
    8095     7787     7825 1
    8096     7788     7789 1
    8097     7788     7826 1
    8098     7788     7827 1
    8099     7789     7828 1
    8100     7789     7829 1
    8101     7789     7830 1
    8102     7831     7832 1
    8103     7831     7838 1
    8104     7831     7854 1
    8105     7831     7915 1
    8106     7832     7833 1
    8107     7832     7836 1
    8108     7833     7834 1
    8109     7833     7837 1
    8110     7834     7835 1
    8111     7835     7836 1
    8112     7836     7842 1
    8113     7837     7838 1
    8114     7837     7841 1
    8115     7838     7839 1
    8116     7839     7840 1
    8117     7839     7843 1
    8118     7840     7841 1
    8119     7840     7846 1
    8120     7844     7845 1
    8121     7844     7852 1
    8122     7845     7846 1
    8123     7845     7853 1
    8124     7846     7847 1
    8125     7847     7848 1
    8126     7847     7851 1
    8127     7848     7849 1
    8128     7849     7850 1
    8129     7850     7851 1
    8130     7851     7852 1
    8131     7852     7980 1
    8132     7854     7855 1
    8133     7854     7874 1
    8134     7854     7875 1
    8135     7855     7856 1
    8136     7855     7866 1
    8137     7855     7876 1
    8138     7856     7857 1
    8139     7856     7877 1
    8140     7856     7878 1
    8141     7857     7858 1
    8142     7857     7879 1
    8143     7857     7880 1
    8144     7858     7859 1
    8145     7858     7881 1
    8146     7858     7882 1
    8147     7859     7860 1
    8148     7859     7883 1
    8149     7859     7884 1
    8150     7860     7861 1
    8151     7860     7885 1
    8152     7860     7886 1
    8153     7861     7862 1
    8154     7861     7887 1
    8155     7861     7888 1
    8156     7862     7863 1
    8157     7862     7889 1
    8158     7862     7890 1
    8159     7863     7864 1
    8160     7863     7891 1
    8161     7863     7892 1
    8162     7864     7865 1
    8163     7864     7893 1
    8164     7864     7894 1
    8165     7865     7895 1
    8166     7865     7896 1
    8167     7865     7897 1
    8168     7866     7867 1
    8169     7866     7898 1
    8170     7866     7899 1
    8171     7867     7868 1
    8172     7867     7900 1
    8173     7867     7901 1
    8174     7868     7869 1
    8175     7868     7902 1
    8176     7868     7903 1
    8177     7869     7870 1
    8178     7869     7904 1
    8179     7869     7905 1
    8180     7870     7871 1
    8181     7870     7906 1
    8182     7870     7907 1
    8183     7871     7872 1
    8184     7871     7908 1
    8185     7871     7909 1
    8186     7872     7873 1
    8187     7872     7910 1
    8188     7872     7911 1
    8189     7873     7912 1
    8190     7873     7913 1
    8191     7873     7914 1
    8192     7915     7916 1
    8193     7915     7935 1
    8194     7915     7936 1
    8195     7916     7917 1
    8196     7916     7927 1
    8197     7916     7937 1
    8198     7917     7918 1
    8199     7917     7938 1
    8200     7917     7939 1
    8201     7918     7919 1
    8202     7918     7940 1
    8203     7918     7941 1
    8204     7919     7920 1
    8205     7919     7942 1
    8206     7919     7943 1
    8207     7920     7921 1
    8208     7920     7944 1
    8209     7920     7945 1
    8210     7921     7922 1
    8211     7921     7946 1
    8212     7921     7947 1
    8213     7922     7923 1
    8214     7922     7948 1
    8215     7922     7949 1
    8216     7923     7924 1
    8217     7923     7950 1
    8218     7923     7951 1
    8219     7924     7925 1
    8220     7924     7952 1
    8221     7924     7953 1
    8222     7925     7926 1
    8223     7925     7954 1
    8224     7925     7955 1
    8225     7926     7956 1
    8226     7926     7957 1
    8227     7926     7958 1
    8228     7927     7928 1
    8229     7927     7959 1
    8230     7927     7960 1
    8231     7928     7929 1
    8232     7928     7961 1
    8233     7928     7962 1
    8234     7929     7930 1
    8235     7929     7963 1
    8236     7929     7964 1
    8237     7930     7931 1
    8238     7930     7965 1
    8239     7930     7966 1
    8240     7931     7932 1
    8241     7931     7967 1
    8242     7931     7968 1
    8243     7932     7933 1
    8244     7932     7969 1
    8245     7932     7970 1
    8246     7933     7934 1
    8247     7933     7971 1
    8248     7933     7972 1
    8249     7934     7973 1
    8250     7934     7974 1
    8251     7934     7975 1
    8252     7976     7977 1
    8253     7976     7983 1
    8254     7976     7999 1
    8255     7976     8060 1
    8256     7977     7978 1
    8257     7977     7981 1
    8258     7978     7979 1
    8259     7978     7982 1
    8260     7979     7980 1
    8261     7980     7981 1
    8262     7981     7987 1
    8263     7982     7983 1
    8264     7982     7986 1
    8265     7983     7984 1
    8266     7984     7985 1
    8267     7984     7988 1
    8268     7985     7986 1
    8269     7985     7991 1
    8270     7989     7990 1
    8271     7989     7997 1
    8272     7990     7991 1
    8273     7990     7998 1
    8274     7991     7992 1
    8275     7992     7993 1
    8276     7992     7996 1
    8277     7993     7994 1
    8278     7994     7995 1
    8279     7995     7996 1
    8280     7996     7997 1
    8281     7997     8125 1
    8282     7999     8000 1
    8283     7999     8019 1
    8284     7999     8020 1
    8285     8000     8001 1
    8286     8000     8011 1
    8287     8000     8021 1
    8288     8001     8002 1
    8289     8001     8022 1
    8290     8001     8023 1
    8291     8002     8003 1
    8292     8002     8024 1
    8293     8002     8025 1
    8294     8003     8004 1
    8295     8003     8026 1
    8296     8003     8027 1
    8297     8004     8005 1
    8298     8004     8028 1
    8299     8004     8029 1
    8300     8005     8006 1
    8301     8005     8030 1
    8302     8005     8031 1
    8303     8006     8007 1
    8304     8006     8032 1
    8305     8006     8033 1
    8306     8007     8008 1
    8307     8007     8034 1
    8308     8007     8035 1
    8309     8008     8009 1
    8310     8008     8036 1
    8311     8008     8037 1
    8312     8009     8010 1
    8313     8009     8038 1
    8314     8009     8039 1
    8315     8010     8040 1
    8316     8010     8041 1
    8317     8010     8042 1
    8318     8011     8012 1
    8319     8011     8043 1
    8320     8011     8044 1
    8321     8012     8013 1
    8322     8012     8045 1
    8323     8012     8046 1
    8324     8013     8014 1
    8325     8013     8047 1
    8326     8013     8048 1
    8327     8014     8015 1
    8328     8014     8049 1
    8329     8014     8050 1
    8330     8015     8016 1
    8331     8015     8051 1
    8332     8015     8052 1
    8333     8016     8017 1
    8334     8016     8053 1
    8335     8016     8054 1
    8336     8017     8018 1
    8337     8017     8055 1
    8338     8017     8056 1
    8339     8018     8057 1
    8340     8018     8058 1
    8341     8018     8059 1
    8342     8060     8061 1
    8343     8060     8080 1
    8344     8060     8081 1
    8345     8061     8062 1
    8346     8061     8072 1
    8347     8061     8082 1
    8348     8062     8063 1
    8349     8062     8083 1
    8350     8062     8084 1
    8351     8063     8064 1
    8352     8063     8085 1
    8353     8063     8086 1
    8354     8064     8065 1
    8355     8064     8087 1
    8356     8064     8088 1
    8357     8065     8066 1
    8358     8065     8089 1
    8359     8065     8090 1
    8360     8066     8067 1
    8361     8066     8091 1
    8362     8066     8092 1
    8363     8067     8068 1
    8364     8067     8093 1
    8365     8067     8094 1
    8366     8068     8069 1
    8367     8068     8095 1
    8368     8068     8096 1
    8369     8069     8070 1
    8370     8069     8097 1
    8371     8069     8098 1
    8372     8070     8071 1
    8373     8070     8099 1
    8374     8070     8100 1
    8375     8071     8101 1
    8376     8071     8102 1
    8377     8071     8103 1
    8378     8072     8073 1
    8379     8072     8104 1
    8380     8072     8105 1
    8381     8073     8074 1
    8382     8073     8106 1
    8383     8073     8107 1
    8384     8074     8075 1
    8385     8074     8108 1
    8386     8074     8109 1
    8387     8075     8076 1
    8388     8075     8110 1
    8389     8075     8111 1
    8390     8076     8077 1
    8391     8076     8112 1
    8392     8076     8113 1
    8393     8077     8078 1
    8394     8077     8114 1
    8395     8077     8115 1
    8396     8078     8079 1
    8397     8078     8116 1
    8398     8078     8117 1
    8399     8079     8118 1
    8400     8079     8119 1
    8401     8079     8120 1
    8402     8121     8122 1
    8403     8121     8128 1
    8404     8121     8144 1
    8405     8121     8205 1
    8406     8122     8123 1
    8407     8122     8126 1
    8408     8123     8124 1
    8409     8123     8127 1
    8410     8124     8125 1
    8411     8125     8126 1
    8412     8126     8132 1
    8413     8127     8128 1
    8414     8127     8131 1
    8415     8128     8129 1
    8416     8129     8130 1
    8417     8129     8133 1
    8418     8130     8131 1
    8419     8130     8136 1
    8420     8134     8135 1
    8421     8134     8142 1
    8422     8135     8136 1
    8423     8135     8143 1
    8424     8136     8137 1
    8425     8137     8138 1
    8426     8137     8141 1
    8427     8138     8139 1
    8428     8139     8140 1
    8429     8140     8141 1
    8430     8141     8142 1
    8431     8142     8270 1
    8432     8144     8145 1
    8433     8144     8164 1
    8434     8144     8165 1
    8435     8145     8146 1
    8436     8145     8156 1
    8437     8145     8166 1
    8438     8146     8147 1
    8439     8146     8167 1
    8440     8146     8168 1
    8441     8147     8148 1
    8442     8147     8169 1
    8443     8147     8170 1
    8444     8148     8149 1
    8445     8148     8171 1
    8446     8148     8172 1
    8447     8149     8150 1
    8448     8149     8173 1
    8449     8149     8174 1
    8450     8150     8151 1
    8451     8150     8175 1
    8452     8150     8176 1
    8453     8151     8152 1
    8454     8151     8177 1
    8455     8151     8178 1
    8456     8152     8153 1
    8457     8152     8179 1
    8458     8152     8180 1
    8459     8153     8154 1
    8460     8153     8181 1
    8461     8153     8182 1
    8462     8154     8155 1
    8463     8154     8183 1
    8464     8154     8184 1
    8465     8155     8185 1
    8466     8155     8186 1
    8467     8155     8187 1
    8468     8156     8157 1
    8469     8156     8188 1
    8470     8156     8189 1
    8471     8157     8158 1
    8472     8157     8190 1
    8473     8157     8191 1
    8474     8158     8159 1
    8475     8158     8192 1
    8476     8158     8193 1
    8477     8159     8160 1
    8478     8159     8194 1
    8479     8159     8195 1
    8480     8160     8161 1
    8481     8160     8196 1
    8482     8160     8197 1
    8483     8161     8162 1
    8484     8161     8198 1
    8485     8161     8199 1
    8486     8162     8163 1
    8487     8162     8200 1
    8488     8162     8201 1
    8489     8163     8202 1
    8490     8163     8203 1
    8491     8163     8204 1
    8492     8205     8206 1
    8493     8205     8225 1
    8494     8205     8226 1
    8495     8206     8207 1
    8496     8206     8217 1
    8497     8206     8227 1
    8498     8207     8208 1
    8499     8207     8228 1
    8500     8207     8229 1
    8501     8208     8209 1
    8502     8208     8230 1
    8503     8208     8231 1
    8504     8209     8210 1
    8505     8209     8232 1
    8506     8209     8233 1
    8507     8210     8211 1
    8508     8210     8234 1
    8509     8210     8235 1
    8510     8211     8212 1
    8511     8211     8236 1
    8512     8211     8237 1
    8513     8212     8213 1
    8514     8212     8238 1
    8515     8212     8239 1
    8516     8213     8214 1
    8517     8213     8240 1
    8518     8213     8241 1
    8519     8214     8215 1
    8520     8214     8242 1
    8521     8214     8243 1
    8522     8215     8216 1
    8523     8215     8244 1
    8524     8215     8245 1
    8525     8216     8246 1
    8526     8216     8247 1
    8527     8216     8248 1
    8528     8217     8218 1
    8529     8217     8249 1
    8530     8217     8250 1
    8531     8218     8219 1
    8532     8218     8251 1
    8533     8218     8252 1
    8534     8219     8220 1
    8535     8219     8253 1
    8536     8219     8254 1
    8537     8220     8221 1
    8538     8220     8255 1
    8539     8220     8256 1
    8540     8221     8222 1
    8541     8221     8257 1
    8542     8221     8258 1
    8543     8222     8223 1
    8544     8222     8259 1
    8545     8222     8260 1
    8546     8223     8224 1
    8547     8223     8261 1
    8548     8223     8262 1
    8549     8224     8263 1
    8550     8224     8264 1
    8551     8224     8265 1
    8552     8266     8267 1
    8553     8266     8273 1
    8554     8266     8289 1
    8555     8266     8350 1
    8556     8267     8268 1
    8557     8267     8271 1
    8558     8268     8269 1
    8559     8268     8272 1
    8560     8269     8270 1
    8561     8270     8271 1
    8562     8271     8277 1
    8563     8272     8273 1
    8564     8272     8276 1
    8565     8273     8274 1
    8566     8274     8275 1
    8567     8274     8278 1
    8568     8275     8276 1
    8569     8275     8281 1
    8570     8279     8280 1
    8571     8279     8287 1
    8572     8280     8281 1
    8573     8280     8288 1
    8574     8281     8282 1
    8575     8282     8283 1
    8576     8282     8286 1
    8577     8283     8284 1
    8578     8284     8285 1
    8579     8285     8286 1
    8580     8286     8287 1
    8581     8287     8415 1
    8582     8289     8290 1
    8583     8289     8309 1
    8584     8289     8310 1
    8585     8290     8291 1
    8586     8290     8301 1
    8587     8290     8311 1
    8588     8291     8292 1
    8589     8291     8312 1
    8590     8291     8313 1
    8591     8292     8293 1
    8592     8292     8314 1
    8593     8292     8315 1
    8594     8293     8294 1
    8595     8293     8316 1
    8596     8293     8317 1
    8597     8294     8295 1
    8598     8294     8318 1
    8599     8294     8319 1
    8600     8295     8296 1
    8601     8295     8320 1
    8602     8295     8321 1
    8603     8296     8297 1
    8604     8296     8322 1
    8605     8296     8323 1
    8606     8297     8298 1
    8607     8297     8324 1
    8608     8297     8325 1
    8609     8298     8299 1
    8610     8298     8326 1
    8611     8298     8327 1
    8612     8299     8300 1
    8613     8299     8328 1
    8614     8299     8329 1
    8615     8300     8330 1
    8616     8300     8331 1
    8617     8300     8332 1
    8618     8301     8302 1
    8619     8301     8333 1
    8620     8301     8334 1
    8621     8302     8303 1
    8622     8302     8335 1
    8623     8302     8336 1
    8624     8303     8304 1
    8625     8303     8337 1
    8626     8303     8338 1
    8627     8304     8305 1
    8628     8304     8339 1
    8629     8304     8340 1
    8630     8305     8306 1
    8631     8305     8341 1
    8632     8305     8342 1
    8633     8306     8307 1
    8634     8306     8343 1
    8635     8306     8344 1
    8636     8307     8308 1
    8637     8307     8345 1
    8638     8307     8346 1
    8639     8308     8347 1
    8640     8308     8348 1
    8641     8308     8349 1
    8642     8350     8351 1
    8643     8350     8370 1
    8644     8350     8371 1
    8645     8351     8352 1
    8646     8351     8362 1
    8647     8351     8372 1
    8648     8352     8353 1
    8649     8352     8373 1
    8650     8352     8374 1
    8651     8353     8354 1
    8652     8353     8375 1
    8653     8353     8376 1
    8654     8354     8355 1
    8655     8354     8377 1
    8656     8354     8378 1
    8657     8355     8356 1
    8658     8355     8379 1
    8659     8355     8380 1
    8660     8356     8357 1
    8661     8356     8381 1
    8662     8356     8382 1
    8663     8357     8358 1
    8664     8357     8383 1
    8665     8357     8384 1
    8666     8358     8359 1
    8667     8358     8385 1
    8668     8358     8386 1
    8669     8359     8360 1
    8670     8359     8387 1
    8671     8359     8388 1
    8672     8360     8361 1
    8673     8360     8389 1
    8674     8360     8390 1
    8675     8361     8391 1
    8676     8361     8392 1
    8677     8361     8393 1
    8678     8362     8363 1
    8679     8362     8394 1
    8680     8362     8395 1
    8681     8363     8364 1
    8682     8363     8396 1
    8683     8363     8397 1
    8684     8364     8365 1
    8685     8364     8398 1
    8686     8364     8399 1
    8687     8365     8366 1
    8688     8365     8400 1
    8689     8365     8401 1
    8690     8366     8367 1
    8691     8366     8402 1
    8692     8366     8403 1
    8693     8367     8368 1
    8694     8367     8404 1
    8695     8367     8405 1
    8696     8368     8369 1
    8697     8368     8406 1
    8698     8368     8407 1
    8699     8369     8408 1
    8700     8369     8409 1
    8701     8369     8410 1
    8702     8411     8412 1
    8703     8411     8418 1
    8704     8411     8434 1
    8705     8411     8495 1
    8706     8412     8413 1
    8707     8412     8416 1
    8708     8413     8414 1
    8709     8413     8417 1
    8710     8414     8415 1
    8711     8415     8416 1
    8712     8416     8422 1
    8713     8417     8418 1
    8714     8417     8421 1
    8715     8418     8419 1
    8716     8419     8420 1
    8717     8419     8423 1
    8718     8420     8421 1
    8719     8420     8426 1
    8720     8424     8425 1
    8721     8424     8432 1
    8722     8425     8426 1
    8723     8425     8433 1
    8724     8426     8427 1
    8725     8427     8428 1
    8726     8427     8431 1
    8727     8428     8429 1
    8728     8429     8430 1
    8729     8430     8431 1
    8730     8431     8432 1
    8731     8432     8560 1
    8732     8434     8435 1
    8733     8434     8454 1
    8734     8434     8455 1
    8735     8435     8436 1
    8736     8435     8446 1
    8737     8435     8456 1
    8738     8436     8437 1
    8739     8436     8457 1
    8740     8436     8458 1
    8741     8437     8438 1
    8742     8437     8459 1
    8743     8437     8460 1
    8744     8438     8439 1
    8745     8438     8461 1
    8746     8438     8462 1
    8747     8439     8440 1
    8748     8439     8463 1
    8749     8439     8464 1
    8750     8440     8441 1
    8751     8440     8465 1
    8752     8440     8466 1
    8753     8441     8442 1
    8754     8441     8467 1
    8755     8441     8468 1
    8756     8442     8443 1
    8757     8442     8469 1
    8758     8442     8470 1
    8759     8443     8444 1
    8760     8443     8471 1
    8761     8443     8472 1
    8762     8444     8445 1
    8763     8444     8473 1
    8764     8444     8474 1
    8765     8445     8475 1
    8766     8445     8476 1
    8767     8445     8477 1
    8768     8446     8447 1
    8769     8446     8478 1
    8770     8446     8479 1
    8771     8447     8448 1
    8772     8447     8480 1
    8773     8447     8481 1
    8774     8448     8449 1
    8775     8448     8482 1
    8776     8448     8483 1
    8777     8449     8450 1
    8778     8449     8484 1
    8779     8449     8485 1
    8780     8450     8451 1
    8781     8450     8486 1
    8782     8450     8487 1
    8783     8451     8452 1
    8784     8451     8488 1
    8785     8451     8489 1
    8786     8452     8453 1
    8787     8452     8490 1
    8788     8452     8491 1
    8789     8453     8492 1
    8790     8453     8493 1
    8791     8453     8494 1
    8792     8495     8496 1
    8793     8495     8515 1
    8794     8495     8516 1
    8795     8496     8497 1
    8796     8496     8507 1
    8797     8496     8517 1
    8798     8497     8498 1
    8799     8497     8518 1
    8800     8497     8519 1
    8801     8498     8499 1
    8802     8498     8520 1
    8803     8498     8521 1
    8804     8499     8500 1
    8805     8499     8522 1
    8806     8499     8523 1
    8807     8500     8501 1
    8808     8500     8524 1
    8809     8500     8525 1
    8810     8501     8502 1
    8811     8501     8526 1
    8812     8501     8527 1
    8813     8502     8503 1
    8814     8502     8528 1
    8815     8502     8529 1
    8816     8503     8504 1
    8817     8503     8530 1
    8818     8503     8531 1
    8819     8504     8505 1
    8820     8504     8532 1
    8821     8504     8533 1
    8822     8505     8506 1
    8823     8505     8534 1
    8824     8505     8535 1
    8825     8506     8536 1
    8826     8506     8537 1
    8827     8506     8538 1
    8828     8507     8508 1
    8829     8507     8539 1
    8830     8507     8540 1
    8831     8508     8509 1
    8832     8508     8541 1
    8833     8508     8542 1
    8834     8509     8510 1
    8835     8509     8543 1
    8836     8509     8544 1
    8837     8510     8511 1
    8838     8510     8545 1
    8839     8510     8546 1
    8840     8511     8512 1
    8841     8511     8547 1
    8842     8511     8548 1
    8843     8512     8513 1
    8844     8512     8549 1
    8845     8512     8550 1
    8846     8513     8514 1
    8847     8513     8551 1
    8848     8513     8552 1
    8849     8514     8553 1
    8850     8514     8554 1
    8851     8514     8555 1
    8852     8556     8557 1
    8853     8556     8563 1
    8854     8556     8579 1
    8855     8556     8640 1
    8856     8557     8558 1
    8857     8557     8561 1
    8858     8558     8559 1
    8859     8558     8562 1
    8860     8559     8560 1
    8861     8560     8561 1
    8862     8561     8567 1
    8863     8562     8563 1
    8864     8562     8566 1
    8865     8563     8564 1
    8866     8564     8565 1
    8867     8564     8568 1
    8868     8565     8566 1
    8869     8565     8571 1
    8870     8569     8570 1
    8871     8569     8577 1
    8872     8570     8571 1
    8873     8570     8578 1
    8874     8571     8572 1
    8875     8572     8573 1
    8876     8572     8576 1
    8877     8573     8574 1
    8878     8574     8575 1
    8879     8575     8576 1
    8880     8576     8577 1
    8881     8577     8705 1
    8882     8579     8580 1
    8883     8579     8599 1
    8884     8579     8600 1
    8885     8580     8581 1
    8886     8580     8591 1
    8887     8580     8601 1
    8888     8581     8582 1
    8889     8581     8602 1
    8890     8581     8603 1
    8891     8582     8583 1
    8892     8582     8604 1
    8893     8582     8605 1
    8894     8583     8584 1
    8895     8583     8606 1
    8896     8583     8607 1
    8897     8584     8585 1
    8898     8584     8608 1
    8899     8584     8609 1
    8900     8585     8586 1
    8901     8585     8610 1
    8902     8585     8611 1
    8903     8586     8587 1
    8904     8586     8612 1
    8905     8586     8613 1
    8906     8587     8588 1
    8907     8587     8614 1
    8908     8587     8615 1
    8909     8588     8589 1
    8910     8588     8616 1
    8911     8588     8617 1
    8912     8589     8590 1
    8913     8589     8618 1
    8914     8589     8619 1
    8915     8590     8620 1
    8916     8590     8621 1
    8917     8590     8622 1
    8918     8591     8592 1
    8919     8591     8623 1
    8920     8591     8624 1
    8921     8592     8593 1
    8922     8592     8625 1
    8923     8592     8626 1
    8924     8593     8594 1
    8925     8593     8627 1
    8926     8593     8628 1
    8927     8594     8595 1
    8928     8594     8629 1
    8929     8594     8630 1
    8930     8595     8596 1
    8931     8595     8631 1
    8932     8595     8632 1
    8933     8596     8597 1
    8934     8596     8633 1
    8935     8596     8634 1
    8936     8597     8598 1
    8937     8597     8635 1
    8938     8597     8636 1
    8939     8598     8637 1
    8940     8598     8638 1
    8941     8598     8639 1
    8942     8640     8641 1
    8943     8640     8660 1
    8944     8640     8661 1
    8945     8641     8642 1
    8946     8641     8652 1
    8947     8641     8662 1
    8948     8642     8643 1
    8949     8642     8663 1
    8950     8642     8664 1
    8951     8643     8644 1
    8952     8643     8665 1
    8953     8643     8666 1
    8954     8644     8645 1
    8955     8644     8667 1
    8956     8644     8668 1
    8957     8645     8646 1
    8958     8645     8669 1
    8959     8645     8670 1
    8960     8646     8647 1
    8961     8646     8671 1
    8962     8646     8672 1
    8963     8647     8648 1
    8964     8647     8673 1
    8965     8647     8674 1
    8966     8648     8649 1
    8967     8648     8675 1
    8968     8648     8676 1
    8969     8649     8650 1
    8970     8649     8677 1
    8971     8649     8678 1
    8972     8650     8651 1
    8973     8650     8679 1
    8974     8650     8680 1
    8975     8651     8681 1
    8976     8651     8682 1
    8977     8651     8683 1
    8978     8652     8653 1
    8979     8652     8684 1
    8980     8652     8685 1
    8981     8653     8654 1
    8982     8653     8686 1
    8983     8653     8687 1
    8984     8654     8655 1
    8985     8654     8688 1
    8986     8654     8689 1
    8987     8655     8656 1
    8988     8655     8690 1
    8989     8655     8691 1
    8990     8656     8657 1
    8991     8656     8692 1
    8992     8656     8693 1
    8993     8657     8658 1
    8994     8657     8694 1
    8995     8657     8695 1
    8996     8658     8659 1
    8997     8658     8696 1
    8998     8658     8697 1
    8999     8659     8698 1
    9000     8659     8699 1
    9001     8659     8700 1
    9002     8701     8702 1
    9003     8701     8708 1
    9004     8701     8724 1
    9005     8701     8785 1
    9006     8702     8703 1
    9007     8702     8706 1
    9008     8703     8704 1
    9009     8703     8707 1
    9010     8704     8705 1
    9011     8705     8706 1
    9012     8706     8712 1
    9013     8707     8708 1
    9014     8707     8711 1
    9015     8708     8709 1
    9016     8709     8710 1
    9017     8709     8713 1
    9018     8710     8711 1
    9019     8710     8716 1
    9020     8714     8715 1
    9021     8714     8722 1
    9022     8715     8716 1
    9023     8715     8723 1
    9024     8716     8717 1
    9025     8717     8718 1
    9026     8717     8721 1
    9027     8718     8719 1
    9028     8719     8720 1
    9029     8720     8721 1
    9030     8721     8722 1
    9031     8722     8850 1
    9032     8724     8725 1
    9033     8724     8744 1
    9034     8724     8745 1
    9035     8725     8726 1
    9036     8725     8736 1
    9037     8725     8746 1
    9038     8726     8727 1
    9039     8726     8747 1
    9040     8726     8748 1
    9041     8727     8728 1
    9042     8727     8749 1
    9043     8727     8750 1
    9044     8728     8729 1
    9045     8728     8751 1
    9046     8728     8752 1
    9047     8729     8730 1
    9048     8729     8753 1
    9049     8729     8754 1
    9050     8730     8731 1
    9051     8730     8755 1
    9052     8730     8756 1
    9053     8731     8732 1
    9054     8731     8757 1
    9055     8731     8758 1
    9056     8732     8733 1
    9057     8732     8759 1
    9058     8732     8760 1
    9059     8733     8734 1
    9060     8733     8761 1
    9061     8733     8762 1
    9062     8734     8735 1
    9063     8734     8763 1
    9064     8734     8764 1
    9065     8735     8765 1
    9066     8735     8766 1
    9067     8735     8767 1
    9068     8736     8737 1
    9069     8736     8768 1
    9070     8736     8769 1
    9071     8737     8738 1
    9072     8737     8770 1
    9073     8737     8771 1
    9074     8738     8739 1
    9075     8738     8772 1
    9076     8738     8773 1
    9077     8739     8740 1
    9078     8739     8774 1
    9079     8739     8775 1
    9080     8740     8741 1
    9081     8740     8776 1
    9082     8740     8777 1
    9083     8741     8742 1
    9084     8741     8778 1
    9085     8741     8779 1
    9086     8742     8743 1
    9087     8742     8780 1
    9088     8742     8781 1
    9089     8743     8782 1
    9090     8743     8783 1
    9091     8743     8784 1
    9092     8785     8786 1
    9093     8785     8805 1
    9094     8785     8806 1
    9095     8786     8787 1
    9096     8786     8797 1
    9097     8786     8807 1
    9098     8787     8788 1
    9099     8787     8808 1
    9100     8787     8809 1
    9101     8788     8789 1
    9102     8788     8810 1
    9103     8788     8811 1
    9104     8789     8790 1
    9105     8789     8812 1
    9106     8789     8813 1
    9107     8790     8791 1
    9108     8790     8814 1
    9109     8790     8815 1
    9110     8791     8792 1
    9111     8791     8816 1
    9112     8791     8817 1
    9113     8792     8793 1
    9114     8792     8818 1
    9115     8792     8819 1
    9116     8793     8794 1
    9117     8793     8820 1
    9118     8793     8821 1
    9119     8794     8795 1
    9120     8794     8822 1
    9121     8794     8823 1
    9122     8795     8796 1
    9123     8795     8824 1
    9124     8795     8825 1
    9125     8796     8826 1
    9126     8796     8827 1
    9127     8796     8828 1
    9128     8797     8798 1
    9129     8797     8829 1
    9130     8797     8830 1
    9131     8798     8799 1
    9132     8798     8831 1
    9133     8798     8832 1
    9134     8799     8800 1
    9135     8799     8833 1
    9136     8799     8834 1
    9137     8800     8801 1
    9138     8800     8835 1
    9139     8800     8836 1
    9140     8801     8802 1
    9141     8801     8837 1
    9142     8801     8838 1
    9143     8802     8803 1
    9144     8802     8839 1
    9145     8802     8840 1
    9146     8803     8804 1
    9147     8803     8841 1
    9148     8803     8842 1
    9149     8804     8843 1
    9150     8804     8844 1
    9151     8804     8845 1
    9152     8846     8847 1
    9153     8846     8853 1
    9154     8846     8869 1
    9155     8846     8930 1
    9156     8847     8848 1
    9157     8847     8851 1
    9158     8848     8849 1
    9159     8848     8852 1
    9160     8849     8850 1
    9161     8850     8851 1
    9162     8851     8857 1
    9163     8852     8853 1
    9164     8852     8856 1
    9165     8853     8854 1
    9166     8854     8855 1
    9167     8854     8858 1
    9168     8855     8856 1
    9169     8855     8861 1
    9170     8859     8860 1
    9171     8859     8867 1
    9172     8860     8861 1
    9173     8860     8868 1
    9174     8861     8862 1
    9175     8862     8863 1
    9176     8862     8866 1
    9177     8863     8864 1
    9178     8864     8865 1
    9179     8865     8866 1
    9180     8866     8867 1
    9181     8867     8995 1
    9182     8869     8870 1
    9183     8869     8889 1
    9184     8869     8890 1
    9185     8870     8871 1
    9186     8870     8881 1
    9187     8870     8891 1
    9188     8871     8872 1
    9189     8871     8892 1
    9190     8871     8893 1
    9191     8872     8873 1
    9192     8872     8894 1
    9193     8872     8895 1
    9194     8873     8874 1
    9195     8873     8896 1
    9196     8873     8897 1
    9197     8874     8875 1
    9198     8874     8898 1
    9199     8874     8899 1
    9200     8875     8876 1
    9201     8875     8900 1
    9202     8875     8901 1
    9203     8876     8877 1
    9204     8876     8902 1
    9205     8876     8903 1
    9206     8877     8878 1
    9207     8877     8904 1
    9208     8877     8905 1
    9209     8878     8879 1
    9210     8878     8906 1
    9211     8878     8907 1
    9212     8879     8880 1
    9213     8879     8908 1
    9214     8879     8909 1
    9215     8880     8910 1
    9216     8880     8911 1
    9217     8880     8912 1
    9218     8881     8882 1
    9219     8881     8913 1
    9220     8881     8914 1
    9221     8882     8883 1
    9222     8882     8915 1
    9223     8882     8916 1
    9224     8883     8884 1
    9225     8883     8917 1
    9226     8883     8918 1
    9227     8884     8885 1
    9228     8884     8919 1
    9229     8884     8920 1
    9230     8885     8886 1
    9231     8885     8921 1
    9232     8885     8922 1
    9233     8886     8887 1
    9234     8886     8923 1
    9235     8886     8924 1
    9236     8887     8888 1
    9237     8887     8925 1
    9238     8887     8926 1
    9239     8888     8927 1
    9240     8888     8928 1
    9241     8888     8929 1
    9242     8930     8931 1
    9243     8930     8950 1
    9244     8930     8951 1
    9245     8931     8932 1
    9246     8931     8942 1
    9247     8931     8952 1
    9248     8932     8933 1
    9249     8932     8953 1
    9250     8932     8954 1
    9251     8933     8934 1
    9252     8933     8955 1
    9253     8933     8956 1
    9254     8934     8935 1
    9255     8934     8957 1
    9256     8934     8958 1
    9257     8935     8936 1
    9258     8935     8959 1
    9259     8935     8960 1
    9260     8936     8937 1
    9261     8936     8961 1
    9262     8936     8962 1
    9263     8937     8938 1
    9264     8937     8963 1
    9265     8937     8964 1
    9266     8938     8939 1
    9267     8938     8965 1
    9268     8938     8966 1
    9269     8939     8940 1
    9270     8939     8967 1
    9271     8939     8968 1
    9272     8940     8941 1
    9273     8940     8969 1
    9274     8940     8970 1
    9275     8941     8971 1
    9276     8941     8972 1
    9277     8941     8973 1
    9278     8942     8943 1
    9279     8942     8974 1
    9280     8942     8975 1
    9281     8943     8944 1
    9282     8943     8976 1
    9283     8943     8977 1
    9284     8944     8945 1
    9285     8944     8978 1
    9286     8944     8979 1
    9287     8945     8946 1
    9288     8945     8980 1
    9289     8945     8981 1
    9290     8946     8947 1
    9291     8946     8982 1
    9292     8946     8983 1
    9293     8947     8948 1
    9294     8947     8984 1
    9295     8947     8985 1
    9296     8948     8949 1
    9297     8948     8986 1
    9298     8948     8987 1
    9299     8949     8988 1
    9300     8949     8989 1
    9301     8949     8990 1
    9302     8991     8992 1
    9303     8991     8998 1
    9304     8991     9014 1
    9305     8991     9075 1
    9306     8992     8993 1
    9307     8992     8996 1
    9308     8993     8994 1
    9309     8993     8997 1
    9310     8994     8995 1
    9311     8995     8996 1
    9312     8996     9002 1
    9313     8997     8998 1
    9314     8997     9001 1
    9315     8998     8999 1
    9316     8999     9000 1
    9317     8999     9003 1
    9318     9000     9001 1
    9319     9000     9006 1
    9320     9004     9005 1
    9321     9004     9012 1
    9322     9005     9006 1
    9323     9005     9013 1
    9324     9006     9007 1
    9325     9007     9008 1
    9326     9007     9011 1
    9327     9008     9009 1
    9328     9009     9010 1
    9329     9010     9011 1
    9330     9011     9012 1
    9331     9012     9140 1
    9332     9014     9015 1
    9333     9014     9034 1
    9334     9014     9035 1
    9335     9015     9016 1
    9336     9015     9026 1
    9337     9015     9036 1
    9338     9016     9017 1
    9339     9016     9037 1
    9340     9016     9038 1
    9341     9017     9018 1
    9342     9017     9039 1
    9343     9017     9040 1
    9344     9018     9019 1
    9345     9018     9041 1
    9346     9018     9042 1
    9347     9019     9020 1
    9348     9019     9043 1
    9349     9019     9044 1
    9350     9020     9021 1
    9351     9020     9045 1
    9352     9020     9046 1
    9353     9021     9022 1
    9354     9021     9047 1
    9355     9021     9048 1
    9356     9022     9023 1
    9357     9022     9049 1
    9358     9022     9050 1
    9359     9023     9024 1
    9360     9023     9051 1
    9361     9023     9052 1
    9362     9024     9025 1
    9363     9024     9053 1
    9364     9024     9054 1
    9365     9025     9055 1
    9366     9025     9056 1
    9367     9025     9057 1
    9368     9026     9027 1
    9369     9026     9058 1
    9370     9026     9059 1
    9371     9027     9028 1
    9372     9027     9060 1
    9373     9027     9061 1
    9374     9028     9029 1
    9375     9028     9062 1
    9376     9028     9063 1
    9377     9029     9030 1
    9378     9029     9064 1
    9379     9029     9065 1
    9380     9030     9031 1
    9381     9030     9066 1
    9382     9030     9067 1
    9383     9031     9032 1
    9384     9031     9068 1
    9385     9031     9069 1
    9386     9032     9033 1
    9387     9032     9070 1
    9388     9032     9071 1
    9389     9033     9072 1
    9390     9033     9073 1
    9391     9033     9074 1
    9392     9075     9076 1
    9393     9075     9095 1
    9394     9075     9096 1
    9395     9076     9077 1
    9396     9076     9087 1
    9397     9076     9097 1
    9398     9077     9078 1
    9399     9077     9098 1
    9400     9077     9099 1
    9401     9078     9079 1
    9402     9078     9100 1
    9403     9078     9101 1
    9404     9079     9080 1
    9405     9079     9102 1
    9406     9079     9103 1
    9407     9080     9081 1
    9408     9080     9104 1
    9409     9080     9105 1
    9410     9081     9082 1
    9411     9081     9106 1
    9412     9081     9107 1
    9413     9082     9083 1
    9414     9082     9108 1
    9415     9082     9109 1
    9416     9083     9084 1
    9417     9083     9110 1
    9418     9083     9111 1
    9419     9084     9085 1
    9420     9084     9112 1
    9421     9084     9113 1
    9422     9085     9086 1
    9423     9085     9114 1
    9424     9085     9115 1
    9425     9086     9116 1
    9426     9086     9117 1
    9427     9086     9118 1
    9428     9087     9088 1
    9429     9087     9119 1
    9430     9087     9120 1
    9431     9088     9089 1
    9432     9088     9121 1
    9433     9088     9122 1
    9434     9089     9090 1
    9435     9089     9123 1
    9436     9089     9124 1
    9437     9090     9091 1
    9438     9090     9125 1
    9439     9090     9126 1
    9440     9091     9092 1
    9441     9091     9127 1
    9442     9091     9128 1
    9443     9092     9093 1
    9444     9092     9129 1
    9445     9092     9130 1
    9446     9093     9094 1
    9447     9093     9131 1
    9448     9093     9132 1
    9449     9094     9133 1
    9450     9094     9134 1
    9451     9094     9135 1
    9452     9136     9137 1
    9453     9136     9143 1
    9454     9136     9159 1
    9455     9136     9220 1
    9456     9137     9138 1
    9457     9137     9141 1
    9458     9138     9139 1
    9459     9138     9142 1
    9460     9139     9140 1
    9461     9140     9141 1
    9462     9141     9147 1
    9463     9142     9143 1
    9464     9142     9146 1
    9465     9143     9144 1
    9466     9144     9145 1
    9467     9144     9148 1
    9468     9145     9146 1
    9469     9145     9151 1
    9470     9149     9150 1
    9471     9149     9157 1
    9472     9150     9151 1
    9473     9150     9158 1
    9474     9151     9152 1
    9475     9152     9153 1
    9476     9152     9156 1
    9477     9153     9154 1
    9478     9154     9155 1
    9479     9155     9156 1
    9480     9156     9157 1
    9481     9157     9285 1
    9482     9159     9160 1
    9483     9159     9179 1
    9484     9159     9180 1
    9485     9160     9161 1
    9486     9160     9171 1
    9487     9160     9181 1
    9488     9161     9162 1
    9489     9161     9182 1
    9490     9161     9183 1
    9491     9162     9163 1
    9492     9162     9184 1
    9493     9162     9185 1
    9494     9163     9164 1
    9495     9163     9186 1
    9496     9163     9187 1
    9497     9164     9165 1
    9498     9164     9188 1
    9499     9164     9189 1
    9500     9165     9166 1
    9501     9165     9190 1
    9502     9165     9191 1
    9503     9166     9167 1
    9504     9166     9192 1
    9505     9166     9193 1
    9506     9167     9168 1
    9507     9167     9194 1
    9508     9167     9195 1
    9509     9168     9169 1
    9510     9168     9196 1
    9511     9168     9197 1
    9512     9169     9170 1
    9513     9169     9198 1
    9514     9169     9199 1
    9515     9170     9200 1
    9516     9170     9201 1
    9517     9170     9202 1
    9518     9171     9172 1
    9519     9171     9203 1
    9520     9171     9204 1
    9521     9172     9173 1
    9522     9172     9205 1
    9523     9172     9206 1
    9524     9173     9174 1
    9525     9173     9207 1
    9526     9173     9208 1
    9527     9174     9175 1
    9528     9174     9209 1
    9529     9174     9210 1
    9530     9175     9176 1
    9531     9175     9211 1
    9532     9175     9212 1
    9533     9176     9177 1
    9534     9176     9213 1
    9535     9176     9214 1
    9536     9177     9178 1
    9537     9177     9215 1
    9538     9177     9216 1
    9539     9178     9217 1
    9540     9178     9218 1
    9541     9178     9219 1
    9542     9220     9221 1
    9543     9220     9240 1
    9544     9220     9241 1
    9545     9221     9222 1
    9546     9221     9232 1
    9547     9221     9242 1
    9548     9222     9223 1
    9549     9222     9243 1
    9550     9222     9244 1
    9551     9223     9224 1
    9552     9223     9245 1
    9553     9223     9246 1
    9554     9224     9225 1
    9555     9224     9247 1
    9556     9224     9248 1
    9557     9225     9226 1
    9558     9225     9249 1
    9559     9225     9250 1
    9560     9226     9227 1
    9561     9226     9251 1
    9562     9226     9252 1
    9563     9227     9228 1
    9564     9227     9253 1
    9565     9227     9254 1
    9566     9228     9229 1
    9567     9228     9255 1
    9568     9228     9256 1
    9569     9229     9230 1
    9570     9229     9257 1
    9571     9229     9258 1
    9572     9230     9231 1
    9573     9230     9259 1
    9574     9230     9260 1
    9575     9231     9261 1
    9576     9231     9262 1
    9577     9231     9263 1
    9578     9232     9233 1
    9579     9232     9264 1
    9580     9232     9265 1
    9581     9233     9234 1
    9582     9233     9266 1
    9583     9233     9267 1
    9584     9234     9235 1
    9585     9234     9268 1
    9586     9234     9269 1
    9587     9235     9236 1
    9588     9235     9270 1
    9589     9235     9271 1
    9590     9236     9237 1
    9591     9236     9272 1
    9592     9236     9273 1
    9593     9237     9238 1
    9594     9237     9274 1
    9595     9237     9275 1
    9596     9238     9239 1
    9597     9238     9276 1
    9598     9238     9277 1
    9599     9239     9278 1
    9600     9239     9279 1
    9601     9239     9280 1
    9602     9281     9282 1
    9603     9281     9288 1
    9604     9281     9304 1
    9605     9281     9365 1
    9606     9282     9283 1
    9607     9282     9286 1
    9608     9283     9284 1
    9609     9283     9287 1
    9610     9284     9285 1
    9611     9285     9286 1
    9612     9286     9292 1
    9613     9287     9288 1
    9614     9287     9291 1
    9615     9288     9289 1
    9616     9289     9290 1
    9617     9289     9293 1
    9618     9290     9291 1
    9619     9290     9296 1
    9620     9294     9295 1
    9621     9294     9302 1
    9622     9295     9296 1
    9623     9295     9303 1
    9624     9296     9297 1
    9625     9297     9298 1
    9626     9297     9301 1
    9627     9298     9299 1
    9628     9299     9300 1
    9629     9300     9301 1
    9630     9301     9302 1
    9631     9302     9430 1
    9632     9304     9305 1
    9633     9304     9324 1
    9634     9304     9325 1
    9635     9305     9306 1
    9636     9305     9316 1
    9637     9305     9326 1
    9638     9306     9307 1
    9639     9306     9327 1
    9640     9306     9328 1
    9641     9307     9308 1
    9642     9307     9329 1
    9643     9307     9330 1
    9644     9308     9309 1
    9645     9308     9331 1
    9646     9308     9332 1
    9647     9309     9310 1
    9648     9309     9333 1
    9649     9309     9334 1
    9650     9310     9311 1
    9651     9310     9335 1
    9652     9310     9336 1
    9653     9311     9312 1
    9654     9311     9337 1
    9655     9311     9338 1
    9656     9312     9313 1
    9657     9312     9339 1
    9658     9312     9340 1
    9659     9313     9314 1
    9660     9313     9341 1
    9661     9313     9342 1
    9662     9314     9315 1
    9663     9314     9343 1
    9664     9314     9344 1
    9665     9315     9345 1
    9666     9315     9346 1
    9667     9315     9347 1
    9668     9316     9317 1
    9669     9316     9348 1
    9670     9316     9349 1
    9671     9317     9318 1
    9672     9317     9350 1
    9673     9317     9351 1
    9674     9318     9319 1
    9675     9318     9352 1
    9676     9318     9353 1
    9677     9319     9320 1
    9678     9319     9354 1
    9679     9319     9355 1
    9680     9320     9321 1
    9681     9320     9356 1
    9682     9320     9357 1
    9683     9321     9322 1
    9684     9321     9358 1
    9685     9321     9359 1
    9686     9322     9323 1
    9687     9322     9360 1
    9688     9322     9361 1
    9689     9323     9362 1
    9690     9323     9363 1
    9691     9323     9364 1
    9692     9365     9366 1
    9693     9365     9385 1
    9694     9365     9386 1
    9695     9366     9367 1
    9696     9366     9377 1
    9697     9366     9387 1
    9698     9367     9368 1
    9699     9367     9388 1
    9700     9367     9389 1
    9701     9368     9369 1
    9702     9368     9390 1
    9703     9368     9391 1
    9704     9369     9370 1
    9705     9369     9392 1
    9706     9369     9393 1
    9707     9370     9371 1
    9708     9370     9394 1
    9709     9370     9395 1
    9710     9371     9372 1
    9711     9371     9396 1
    9712     9371     9397 1
    9713     9372     9373 1
    9714     9372     9398 1
    9715     9372     9399 1
    9716     9373     9374 1
    9717     9373     9400 1
    9718     9373     9401 1
    9719     9374     9375 1
    9720     9374     9402 1
    9721     9374     9403 1
    9722     9375     9376 1
    9723     9375     9404 1
    9724     9375     9405 1
    9725     9376     9406 1
    9726     9376     9407 1
    9727     9376     9408 1
    9728     9377     9378 1
    9729     9377     9409 1
    9730     9377     9410 1
    9731     9378     9379 1
    9732     9378     9411 1
    9733     9378     9412 1
    9734     9379     9380 1
    9735     9379     9413 1
    9736     9379     9414 1
    9737     9380     9381 1
    9738     9380     9415 1
    9739     9380     9416 1
    9740     9381     9382 1
    9741     9381     9417 1
    9742     9381     9418 1
    9743     9382     9383 1
    9744     9382     9419 1
    9745     9382     9420 1
    9746     9383     9384 1
    9747     9383     9421 1
    9748     9383     9422 1
    9749     9384     9423 1
    9750     9384     9424 1
    9751     9384     9425 1
    9752     9426     9427 1
    9753     9426     9433 1
    9754     9426     9449 1
    9755     9426     9510 1
    9756     9427     9428 1
    9757     9427     9431 1
    9758     9428     9429 1
    9759     9428     9432 1
    9760     9429     9430 1
    9761     9430     9431 1
    9762     9431     9437 1
    9763     9432     9433 1
    9764     9432     9436 1
    9765     9433     9434 1
    9766     9434     9435 1
    9767     9434     9438 1
    9768     9435     9436 1
    9769     9435     9441 1
    9770     9439     9440 1
    9771     9439     9447 1
    9772     9440     9441 1
    9773     9440     9448 1
    9774     9441     9442 1
    9775     9442     9443 1
    9776     9442     9446 1
    9777     9443     9444 1
    9778     9444     9445 1
    9779     9445     9446 1
    9780     9446     9447 1
    9781     9447     9575 1
    9782     9449     9450 1
    9783     9449     9469 1
    9784     9449     9470 1
    9785     9450     9451 1
    9786     9450     9461 1
    9787     9450     9471 1
    9788     9451     9452 1
    9789     9451     9472 1
    9790     9451     9473 1
    9791     9452     9453 1
    9792     9452     9474 1
    9793     9452     9475 1
    9794     9453     9454 1
    9795     9453     9476 1
    9796     9453     9477 1
    9797     9454     9455 1
    9798     9454     9478 1
    9799     9454     9479 1
    9800     9455     9456 1
    9801     9455     9480 1
    9802     9455     9481 1
    9803     9456     9457 1
    9804     9456     9482 1
    9805     9456     9483 1
    9806     9457     9458 1
    9807     9457     9484 1
    9808     9457     9485 1
    9809     9458     9459 1
    9810     9458     9486 1
    9811     9458     9487 1
    9812     9459     9460 1
    9813     9459     9488 1
    9814     9459     9489 1
    9815     9460     9490 1
    9816     9460     9491 1
    9817     9460     9492 1
    9818     9461     9462 1
    9819     9461     9493 1
    9820     9461     9494 1
    9821     9462     9463 1
    9822     9462     9495 1
    9823     9462     9496 1
    9824     9463     9464 1
    9825     9463     9497 1
    9826     9463     9498 1
    9827     9464     9465 1
    9828     9464     9499 1
    9829     9464     9500 1
    9830     9465     9466 1
    9831     9465     9501 1
    9832     9465     9502 1
    9833     9466     9467 1
    9834     9466     9503 1
    9835     9466     9504 1
    9836     9467     9468 1
    9837     9467     9505 1
    9838     9467     9506 1
    9839     9468     9507 1
    9840     9468     9508 1
    9841     9468     9509 1
    9842     9510     9511 1
    9843     9510     9530 1
    9844     9510     9531 1
    9845     9511     9512 1
    9846     9511     9522 1
    9847     9511     9532 1
    9848     9512     9513 1
    9849     9512     9533 1
    9850     9512     9534 1
    9851     9513     9514 1
    9852     9513     9535 1
    9853     9513     9536 1
    9854     9514     9515 1
    9855     9514     9537 1
    9856     9514     9538 1
    9857     9515     9516 1
    9858     9515     9539 1
    9859     9515     9540 1
    9860     9516     9517 1
    9861     9516     9541 1
    9862     9516     9542 1
    9863     9517     9518 1
    9864     9517     9543 1
    9865     9517     9544 1
    9866     9518     9519 1
    9867     9518     9545 1
    9868     9518     9546 1
    9869     9519     9520 1
    9870     9519     9547 1
    9871     9519     9548 1
    9872     9520     9521 1
    9873     9520     9549 1
    9874     9520     9550 1
    9875     9521     9551 1
    9876     9521     9552 1
    9877     9521     9553 1
    9878     9522     9523 1
    9879     9522     9554 1
    9880     9522     9555 1
    9881     9523     9524 1
    9882     9523     9556 1
    9883     9523     9557 1
    9884     9524     9525 1
    9885     9524     9558 1
    9886     9524     9559 1
    9887     9525     9526 1
    9888     9525     9560 1
    9889     9525     9561 1
    9890     9526     9527 1
    9891     9526     9562 1
    9892     9526     9563 1
    9893     9527     9528 1
    9894     9527     9564 1
    9895     9527     9565 1
    9896     9528     9529 1
    9897     9528     9566 1
    9898     9528     9567 1
    9899     9529     9568 1
    9900     9529     9569 1
    9901     9529     9570 1
    9902     9571     9572 1
    9903     9571     9578 1
    9904     9571     9594 1
    9905     9571     9655 1
    9906     9572     9573 1
    9907     9572     9576 1
    9908     9573     9574 1
    9909     9573     9577 1
    9910     9574     9575 1
    9911     9575     9576 1
    9912     9576     9582 1
    9913     9577     9578 1
    9914     9577     9581 1
    9915     9578     9579 1
    9916     9579     9580 1
    9917     9579     9583 1
    9918     9580     9581 1
    9919     9580     9586 1
    9920     9584     9585 1
    9921     9584     9592 1
    9922     9585     9586 1
    9923     9585     9593 1
    9924     9586     9587 1
    9925     9587     9588 1
    9926     9587     9591 1
    9927     9588     9589 1
    9928     9589     9590 1
    9929     9590     9591 1
    9930     9591     9592 1
    9931     9592     9720 1
    9932     9594     9595 1
    9933     9594     9614 1
    9934     9594     9615 1
    9935     9595     9596 1
    9936     9595     9606 1
    9937     9595     9616 1
    9938     9596     9597 1
    9939     9596     9617 1
    9940     9596     9618 1
    9941     9597     9598 1
    9942     9597     9619 1
    9943     9597     9620 1
    9944     9598     9599 1
    9945     9598     9621 1
    9946     9598     9622 1
    9947     9599     9600 1
    9948     9599     9623 1
    9949     9599     9624 1
    9950     9600     9601 1
    9951     9600     9625 1
    9952     9600     9626 1
    9953     9601     9602 1
    9954     9601     9627 1
    9955     9601     9628 1
    9956     9602     9603 1
    9957     9602     9629 1
    9958     9602     9630 1
    9959     9603     9604 1
    9960     9603     9631 1
    9961     9603     9632 1
    9962     9604     9605 1
    9963     9604     9633 1
    9964     9604     9634 1
    9965     9605     9635 1
    9966     9605     9636 1
    9967     9605     9637 1
    9968     9606     9607 1
    9969     9606     9638 1
    9970     9606     9639 1
    9971     9607     9608 1
    9972     9607     9640 1
    9973     9607     9641 1
    9974     9608     9609 1
    9975     9608     9642 1
    9976     9608     9643 1
    9977     9609     9610 1
    9978     9609     9644 1
    9979     9609     9645 1
    9980     9610     9611 1
    9981     9610     9646 1
    9982     9610     9647 1
    9983     9611     9612 1
    9984     9611     9648 1
    9985     9611     9649 1
    9986     9612     9613 1
    9987     9612     9650 1
    9988     9612     9651 1
    9989     9613     9652 1
    9990     9613     9653 1
    9991     9613     9654 1
    9992     9655     9656 1
    9993     9655     9675 1
    9994     9655     9676 1
    9995     9656     9657 1
    9996     9656     9667 1
    9997     9656     9677 1
    9998     9657     9658 1
    9999     9657     9678 1
   10000     9657     9679 1
   10001     9658     9659 1
   10002     9658     9680 1
   10003     9658     9681 1
   10004     9659     9660 1
   10005     9659     9682 1
   10006     9659     9683 1
   10007     9660     9661 1
   10008     9660     9684 1
   10009     9660     9685 1
   10010     9661     9662 1
   10011     9661     9686 1
   10012     9661     9687 1
   10013     9662     9663 1
   10014     9662     9688 1
   10015     9662     9689 1
   10016     9663     9664 1
   10017     9663     9690 1
   10018     9663     9691 1
   10019     9664     9665 1
   10020     9664     9692 1
   10021     9664     9693 1
   10022     9665     9666 1
   10023     9665     9694 1
   10024     9665     9695 1
   10025     9666     9696 1
   10026     9666     9697 1
   10027     9666     9698 1
   10028     9667     9668 1
   10029     9667     9699 1
   10030     9667     9700 1
   10031     9668     9669 1
   10032     9668     9701 1
   10033     9668     9702 1
   10034     9669     9670 1
   10035     9669     9703 1
   10036     9669     9704 1
   10037     9670     9671 1
   10038     9670     9705 1
   10039     9670     9706 1
   10040     9671     9672 1
   10041     9671     9707 1
   10042     9671     9708 1
   10043     9672     9673 1
   10044     9672     9709 1
   10045     9672     9710 1
   10046     9673     9674 1
   10047     9673     9711 1
   10048     9673     9712 1
   10049     9674     9713 1
   10050     9674     9714 1
   10051     9674     9715 1
   10052     9716     9717 1
   10053     9716     9723 1
   10054     9716     9739 1
   10055     9716     9800 1
   10056     9717     9718 1
   10057     9717     9721 1
   10058     9718     9719 1
   10059     9718     9722 1
   10060     9719     9720 1
   10061     9720     9721 1
   10062     9721     9727 1
   10063     9722     9723 1
   10064     9722     9726 1
   10065     9723     9724 1
   10066     9724     9725 1
   10067     9724     9728 1
   10068     9725     9726 1
   10069     9725     9731 1
   10070     9729     9730 1
   10071     9729     9737 1
   10072     9730     9731 1
   10073     9730     9738 1
   10074     9731     9732 1
   10075     9732     9733 1
   10076     9732     9736 1
   10077     9733     9734 1
   10078     9734     9735 1
   10079     9735     9736 1
   10080     9736     9737 1
   10081     9737     9865 1
   10082     9739     9740 1
   10083     9739     9759 1
   10084     9739     9760 1
   10085     9740     9741 1
   10086     9740     9751 1
   10087     9740     9761 1
   10088     9741     9742 1
   10089     9741     9762 1
   10090     9741     9763 1
   10091     9742     9743 1
   10092     9742     9764 1
   10093     9742     9765 1
   10094     9743     9744 1
   10095     9743     9766 1
   10096     9743     9767 1
   10097     9744     9745 1
   10098     9744     9768 1
   10099     9744     9769 1
   10100     9745     9746 1
   10101     9745     9770 1
   10102     9745     9771 1
   10103     9746     9747 1
   10104     9746     9772 1
   10105     9746     9773 1
   10106     9747     9748 1
   10107     9747     9774 1
   10108     9747     9775 1
   10109     9748     9749 1
   10110     9748     9776 1
   10111     9748     9777 1
   10112     9749     9750 1
   10113     9749     9778 1
   10114     9749     9779 1
   10115     9750     9780 1
   10116     9750     9781 1
   10117     9750     9782 1
   10118     9751     9752 1
   10119     9751     9783 1
   10120     9751     9784 1
   10121     9752     9753 1
   10122     9752     9785 1
   10123     9752     9786 1
   10124     9753     9754 1
   10125     9753     9787 1
   10126     9753     9788 1
   10127     9754     9755 1
   10128     9754     9789 1
   10129     9754     9790 1
   10130     9755     9756 1
   10131     9755     9791 1
   10132     9755     9792 1
   10133     9756     9757 1
   10134     9756     9793 1
   10135     9756     9794 1
   10136     9757     9758 1
   10137     9757     9795 1
   10138     9757     9796 1
   10139     9758     9797 1
   10140     9758     9798 1
   10141     9758     9799 1
   10142     9800     9801 1
   10143     9800     9820 1
   10144     9800     9821 1
   10145     9801     9802 1
   10146     9801     9812 1
   10147     9801     9822 1
   10148     9802     9803 1
   10149     9802     9823 1
   10150     9802     9824 1
   10151     9803     9804 1
   10152     9803     9825 1
   10153     9803     9826 1
   10154     9804     9805 1
   10155     9804     9827 1
   10156     9804     9828 1
   10157     9805     9806 1
   10158     9805     9829 1
   10159     9805     9830 1
   10160     9806     9807 1
   10161     9806     9831 1
   10162     9806     9832 1
   10163     9807     9808 1
   10164     9807     9833 1
   10165     9807     9834 1
   10166     9808     9809 1
   10167     9808     9835 1
   10168     9808     9836 1
   10169     9809     9810 1
   10170     9809     9837 1
   10171     9809     9838 1
   10172     9810     9811 1
   10173     9810     9839 1
   10174     9810     9840 1
   10175     9811     9841 1
   10176     9811     9842 1
   10177     9811     9843 1
   10178     9812     9813 1
   10179     9812     9844 1
   10180     9812     9845 1
   10181     9813     9814 1
   10182     9813     9846 1
   10183     9813     9847 1
   10184     9814     9815 1
   10185     9814     9848 1
   10186     9814     9849 1
   10187     9815     9816 1
   10188     9815     9850 1
   10189     9815     9851 1
   10190     9816     9817 1
   10191     9816     9852 1
   10192     9816     9853 1
   10193     9817     9818 1
   10194     9817     9854 1
   10195     9817     9855 1
   10196     9818     9819 1
   10197     9818     9856 1
   10198     9818     9857 1
   10199     9819     9858 1
   10200     9819     9859 1
   10201     9819     9860 1
   10202     9861     9862 1
   10203     9861     9868 1
   10204     9861     9884 1
   10205     9861     9945 1
   10206     9862     9863 1
   10207     9862     9866 1
   10208     9863     9864 1
   10209     9863     9867 1
   10210     9864     9865 1
   10211     9865     9866 1
   10212     9866     9872 1
   10213     9867     9868 1
   10214     9867     9871 1
   10215     9868     9869 1
   10216     9869     9870 1
   10217     9869     9873 1
   10218     9870     9871 1
   10219     9870     9876 1
   10220     9874     9875 1
   10221     9874     9882 1
   10222     9875     9876 1
   10223     9875     9883 1
   10224     9876     9877 1
   10225     9877     9878 1
   10226     9877     9881 1
   10227     9878     9879 1
   10228     9879     9880 1
   10229     9880     9881 1
   10230     9881     9882 1
   10231     9882    10010 1
   10232     9884     9885 1
   10233     9884     9904 1
   10234     9884     9905 1
   10235     9885     9886 1
   10236     9885     9896 1
   10237     9885     9906 1
   10238     9886     9887 1
   10239     9886     9907 1
   10240     9886     9908 1
   10241     9887     9888 1
   10242     9887     9909 1
   10243     9887     9910 1
   10244     9888     9889 1
   10245     9888     9911 1
   10246     9888     9912 1
   10247     9889     9890 1
   10248     9889     9913 1
   10249     9889     9914 1
   10250     9890     9891 1
   10251     9890     9915 1
   10252     9890     9916 1
   10253     9891     9892 1
   10254     9891     9917 1
   10255     9891     9918 1
   10256     9892     9893 1
   10257     9892     9919 1
   10258     9892     9920 1
   10259     9893     9894 1
   10260     9893     9921 1
   10261     9893     9922 1
   10262     9894     9895 1
   10263     9894     9923 1
   10264     9894     9924 1
   10265     9895     9925 1
   10266     9895     9926 1
   10267     9895     9927 1
   10268     9896     9897 1
   10269     9896     9928 1
   10270     9896     9929 1
   10271     9897     9898 1
   10272     9897     9930 1
   10273     9897     9931 1
   10274     9898     9899 1
   10275     9898     9932 1
   10276     9898     9933 1
   10277     9899     9900 1
   10278     9899     9934 1
   10279     9899     9935 1
   10280     9900     9901 1
   10281     9900     9936 1
   10282     9900     9937 1
   10283     9901     9902 1
   10284     9901     9938 1
   10285     9901     9939 1
   10286     9902     9903 1
   10287     9902     9940 1
   10288     9902     9941 1
   10289     9903     9942 1
   10290     9903     9943 1
   10291     9903     9944 1
   10292     9945     9946 1
   10293     9945     9965 1
   10294     9945     9966 1
   10295     9946     9947 1
   10296     9946     9957 1
   10297     9946     9967 1
   10298     9947     9948 1
   10299     9947     9968 1
   10300     9947     9969 1
   10301     9948     9949 1
   10302     9948     9970 1
   10303     9948     9971 1
   10304     9949     9950 1
   10305     9949     9972 1
   10306     9949     9973 1
   10307     9950     9951 1
   10308     9950     9974 1
   10309     9950     9975 1
   10310     9951     9952 1
   10311     9951     9976 1
   10312     9951     9977 1
   10313     9952     9953 1
   10314     9952     9978 1
   10315     9952     9979 1
   10316     9953     9954 1
   10317     9953     9980 1
   10318     9953     9981 1
   10319     9954     9955 1
   10320     9954     9982 1
   10321     9954     9983 1
   10322     9955     9956 1
   10323     9955     9984 1
   10324     9955     9985 1
   10325     9956     9986 1
   10326     9956     9987 1
   10327     9956     9988 1
   10328     9957     9958 1
   10329     9957     9989 1
   10330     9957     9990 1
   10331     9958     9959 1
   10332     9958     9991 1
   10333     9958     9992 1
   10334     9959     9960 1
   10335     9959     9993 1
   10336     9959     9994 1
   10337     9960     9961 1
   10338     9960     9995 1
   10339     9960     9996 1
   10340     9961     9962 1
   10341     9961     9997 1
   10342     9961     9998 1
   10343     9962     9963 1
   10344     9962     9999 1
   10345     9962    10000 1
   10346     9963     9964 1
   10347     9963    10001 1
   10348     9963    10002 1
   10349     9964    10003 1
   10350     9964    10004 1
   10351     9964    10005 1
   10352    10006    10007 1
   10353    10006    10013 1
   10354    10006    10029 1
   10355    10006    10090 1
   10356    10007    10008 1
   10357    10007    10011 1
   10358    10008    10009 1
   10359    10008    10012 1
   10360    10009    10010 1
   10361    10010    10011 1
   10362    10011    10017 1
   10363    10012    10013 1
   10364    10012    10016 1
   10365    10013    10014 1
   10366    10014    10015 1
   10367    10014    10018 1
   10368    10015    10016 1
   10369    10015    10021 1
   10370    10019    10020 1
   10371    10019    10027 1
   10372    10020    10021 1
   10373    10020    10028 1
   10374    10021    10022 1
   10375    10022    10023 1
   10376    10022    10026 1
   10377    10023    10024 1
   10378    10024    10025 1
   10379    10025    10026 1
   10380    10026    10027 1
   10381    10027    10155 1
   10382    10029    10030 1
   10383    10029    10049 1
   10384    10029    10050 1
   10385    10030    10031 1
   10386    10030    10041 1
   10387    10030    10051 1
   10388    10031    10032 1
   10389    10031    10052 1
   10390    10031    10053 1
   10391    10032    10033 1
   10392    10032    10054 1
   10393    10032    10055 1
   10394    10033    10034 1
   10395    10033    10056 1
   10396    10033    10057 1
   10397    10034    10035 1
   10398    10034    10058 1
   10399    10034    10059 1
   10400    10035    10036 1
   10401    10035    10060 1
   10402    10035    10061 1
   10403    10036    10037 1
   10404    10036    10062 1
   10405    10036    10063 1
   10406    10037    10038 1
   10407    10037    10064 1
   10408    10037    10065 1
   10409    10038    10039 1
   10410    10038    10066 1
   10411    10038    10067 1
   10412    10039    10040 1
   10413    10039    10068 1
   10414    10039    10069 1
   10415    10040    10070 1
   10416    10040    10071 1
   10417    10040    10072 1
   10418    10041    10042 1
   10419    10041    10073 1
   10420    10041    10074 1
   10421    10042    10043 1
   10422    10042    10075 1
   10423    10042    10076 1
   10424    10043    10044 1
   10425    10043    10077 1
   10426    10043    10078 1
   10427    10044    10045 1
   10428    10044    10079 1
   10429    10044    10080 1
   10430    10045    10046 1
   10431    10045    10081 1
   10432    10045    10082 1
   10433    10046    10047 1
   10434    10046    10083 1
   10435    10046    10084 1
   10436    10047    10048 1
   10437    10047    10085 1
   10438    10047    10086 1
   10439    10048    10087 1
   10440    10048    10088 1
   10441    10048    10089 1
   10442    10090    10091 1
   10443    10090    10110 1
   10444    10090    10111 1
   10445    10091    10092 1
   10446    10091    10102 1
   10447    10091    10112 1
   10448    10092    10093 1
   10449    10092    10113 1
   10450    10092    10114 1
   10451    10093    10094 1
   10452    10093    10115 1
   10453    10093    10116 1
   10454    10094    10095 1
   10455    10094    10117 1
   10456    10094    10118 1
   10457    10095    10096 1
   10458    10095    10119 1
   10459    10095    10120 1
   10460    10096    10097 1
   10461    10096    10121 1
   10462    10096    10122 1
   10463    10097    10098 1
   10464    10097    10123 1
   10465    10097    10124 1
   10466    10098    10099 1
   10467    10098    10125 1
   10468    10098    10126 1
   10469    10099    10100 1
   10470    10099    10127 1
   10471    10099    10128 1
   10472    10100    10101 1
   10473    10100    10129 1
   10474    10100    10130 1
   10475    10101    10131 1
   10476    10101    10132 1
   10477    10101    10133 1
   10478    10102    10103 1
   10479    10102    10134 1
   10480    10102    10135 1
   10481    10103    10104 1
   10482    10103    10136 1
   10483    10103    10137 1
   10484    10104    10105 1
   10485    10104    10138 1
   10486    10104    10139 1
   10487    10105    10106 1
   10488    10105    10140 1
   10489    10105    10141 1
   10490    10106    10107 1
   10491    10106    10142 1
   10492    10106    10143 1
   10493    10107    10108 1
   10494    10107    10144 1
   10495    10107    10145 1
   10496    10108    10109 1
   10497    10108    10146 1
   10498    10108    10147 1
   10499    10109    10148 1
   10500    10109    10149 1
   10501    10109    10150 1
   10502    10151    10152 1
   10503    10151    10158 1
   10504    10151    10174 1
   10505    10151    10235 1
   10506    10152    10153 1
   10507    10152    10156 1
   10508    10153    10154 1
   10509    10153    10157 1
   10510    10154    10155 1
   10511    10155    10156 1
   10512    10156    10162 1
   10513    10157    10158 1
   10514    10157    10161 1
   10515    10158    10159 1
   10516    10159    10160 1
   10517    10159    10163 1
   10518    10160    10161 1
   10519    10160    10166 1
   10520    10164    10165 1
   10521    10164    10172 1
   10522    10165    10166 1
   10523    10165    10173 1
   10524    10166    10167 1
   10525    10167    10168 1
   10526    10167    10171 1
   10527    10168    10169 1
   10528    10169    10170 1
   10529    10170    10171 1
   10530    10171    10172 1
   10531    10172    10300 1
   10532    10174    10175 1
   10533    10174    10194 1
   10534    10174    10195 1
   10535    10175    10176 1
   10536    10175    10186 1
   10537    10175    10196 1
   10538    10176    10177 1
   10539    10176    10197 1
   10540    10176    10198 1
   10541    10177    10178 1
   10542    10177    10199 1
   10543    10177    10200 1
   10544    10178    10179 1
   10545    10178    10201 1
   10546    10178    10202 1
   10547    10179    10180 1
   10548    10179    10203 1
   10549    10179    10204 1
   10550    10180    10181 1
   10551    10180    10205 1
   10552    10180    10206 1
   10553    10181    10182 1
   10554    10181    10207 1
   10555    10181    10208 1
   10556    10182    10183 1
   10557    10182    10209 1
   10558    10182    10210 1
   10559    10183    10184 1
   10560    10183    10211 1
   10561    10183    10212 1
   10562    10184    10185 1
   10563    10184    10213 1
   10564    10184    10214 1
   10565    10185    10215 1
   10566    10185    10216 1
   10567    10185    10217 1
   10568    10186    10187 1
   10569    10186    10218 1
   10570    10186    10219 1
   10571    10187    10188 1
   10572    10187    10220 1
   10573    10187    10221 1
   10574    10188    10189 1
   10575    10188    10222 1
   10576    10188    10223 1
   10577    10189    10190 1
   10578    10189    10224 1
   10579    10189    10225 1
   10580    10190    10191 1
   10581    10190    10226 1
   10582    10190    10227 1
   10583    10191    10192 1
   10584    10191    10228 1
   10585    10191    10229 1
   10586    10192    10193 1
   10587    10192    10230 1
   10588    10192    10231 1
   10589    10193    10232 1
   10590    10193    10233 1
   10591    10193    10234 1
   10592    10235    10236 1
   10593    10235    10255 1
   10594    10235    10256 1
   10595    10236    10237 1
   10596    10236    10247 1
   10597    10236    10257 1
   10598    10237    10238 1
   10599    10237    10258 1
   10600    10237    10259 1
   10601    10238    10239 1
   10602    10238    10260 1
   10603    10238    10261 1
   10604    10239    10240 1
   10605    10239    10262 1
   10606    10239    10263 1
   10607    10240    10241 1
   10608    10240    10264 1
   10609    10240    10265 1
   10610    10241    10242 1
   10611    10241    10266 1
   10612    10241    10267 1
   10613    10242    10243 1
   10614    10242    10268 1
   10615    10242    10269 1
   10616    10243    10244 1
   10617    10243    10270 1
   10618    10243    10271 1
   10619    10244    10245 1
   10620    10244    10272 1
   10621    10244    10273 1
   10622    10245    10246 1
   10623    10245    10274 1
   10624    10245    10275 1
   10625    10246    10276 1
   10626    10246    10277 1
   10627    10246    10278 1
   10628    10247    10248 1
   10629    10247    10279 1
   10630    10247    10280 1
   10631    10248    10249 1
   10632    10248    10281 1
   10633    10248    10282 1
   10634    10249    10250 1
   10635    10249    10283 1
   10636    10249    10284 1
   10637    10250    10251 1
   10638    10250    10285 1
   10639    10250    10286 1
   10640    10251    10252 1
   10641    10251    10287 1
   10642    10251    10288 1
   10643    10252    10253 1
   10644    10252    10289 1
   10645    10252    10290 1
   10646    10253    10254 1
   10647    10253    10291 1
   10648    10253    10292 1
   10649    10254    10293 1
   10650    10254    10294 1
   10651    10254    10295 1
   10652    10296    10297 1
   10653    10296    10303 1
   10654    10296    10319 1
   10655    10296    10380 1
   10656    10297    10298 1
   10657    10297    10301 1
   10658    10298    10299 1
   10659    10298    10302 1
   10660    10299    10300 1
   10661    10300    10301 1
   10662    10301    10307 1
   10663    10302    10303 1
   10664    10302    10306 1
   10665    10303    10304 1
   10666    10304    10305 1
   10667    10304    10308 1
   10668    10305    10306 1
   10669    10305    10311 1
   10670    10309    10310 1
   10671    10309    10317 1
   10672    10310    10311 1
   10673    10310    10318 1
   10674    10311    10312 1
   10675    10312    10313 1
   10676    10312    10316 1
   10677    10313    10314 1
   10678    10314    10315 1
   10679    10315    10316 1
   10680    10316    10317 1
   10681    10317    10445 1
   10682    10319    10320 1
   10683    10319    10339 1
   10684    10319    10340 1
   10685    10320    10321 1
   10686    10320    10331 1
   10687    10320    10341 1
   10688    10321    10322 1
   10689    10321    10342 1
   10690    10321    10343 1
   10691    10322    10323 1
   10692    10322    10344 1
   10693    10322    10345 1
   10694    10323    10324 1
   10695    10323    10346 1
   10696    10323    10347 1
   10697    10324    10325 1
   10698    10324    10348 1
   10699    10324    10349 1
   10700    10325    10326 1
   10701    10325    10350 1
   10702    10325    10351 1
   10703    10326    10327 1
   10704    10326    10352 1
   10705    10326    10353 1
   10706    10327    10328 1
   10707    10327    10354 1
   10708    10327    10355 1
   10709    10328    10329 1
   10710    10328    10356 1
   10711    10328    10357 1
   10712    10329    10330 1
   10713    10329    10358 1
   10714    10329    10359 1
   10715    10330    10360 1
   10716    10330    10361 1
   10717    10330    10362 1
   10718    10331    10332 1
   10719    10331    10363 1
   10720    10331    10364 1
   10721    10332    10333 1
   10722    10332    10365 1
   10723    10332    10366 1
   10724    10333    10334 1
   10725    10333    10367 1
   10726    10333    10368 1
   10727    10334    10335 1
   10728    10334    10369 1
   10729    10334    10370 1
   10730    10335    10336 1
   10731    10335    10371 1
   10732    10335    10372 1
   10733    10336    10337 1
   10734    10336    10373 1
   10735    10336    10374 1
   10736    10337    10338 1
   10737    10337    10375 1
   10738    10337    10376 1
   10739    10338    10377 1
   10740    10338    10378 1
   10741    10338    10379 1
   10742    10380    10381 1
   10743    10380    10400 1
   10744    10380    10401 1
   10745    10381    10382 1
   10746    10381    10392 1
   10747    10381    10402 1
   10748    10382    10383 1
   10749    10382    10403 1
   10750    10382    10404 1
   10751    10383    10384 1
   10752    10383    10405 1
   10753    10383    10406 1
   10754    10384    10385 1
   10755    10384    10407 1
   10756    10384    10408 1
   10757    10385    10386 1
   10758    10385    10409 1
   10759    10385    10410 1
   10760    10386    10387 1
   10761    10386    10411 1
   10762    10386    10412 1
   10763    10387    10388 1
   10764    10387    10413 1
   10765    10387    10414 1
   10766    10388    10389 1
   10767    10388    10415 1
   10768    10388    10416 1
   10769    10389    10390 1
   10770    10389    10417 1
   10771    10389    10418 1
   10772    10390    10391 1
   10773    10390    10419 1
   10774    10390    10420 1
   10775    10391    10421 1
   10776    10391    10422 1
   10777    10391    10423 1
   10778    10392    10393 1
   10779    10392    10424 1
   10780    10392    10425 1
   10781    10393    10394 1
   10782    10393    10426 1
   10783    10393    10427 1
   10784    10394    10395 1
   10785    10394    10428 1
   10786    10394    10429 1
   10787    10395    10396 1
   10788    10395    10430 1
   10789    10395    10431 1
   10790    10396    10397 1
   10791    10396    10432 1
   10792    10396    10433 1
   10793    10397    10398 1
   10794    10397    10434 1
   10795    10397    10435 1
   10796    10398    10399 1
   10797    10398    10436 1
   10798    10398    10437 1
   10799    10399    10438 1
   10800    10399    10439 1
   10801    10399    10440 1
   10802    10441    10442 1
   10803    10441    10448 1
   10804    10441    10464 1
   10805    10441    10525 1
   10806    10442    10443 1
   10807    10442    10446 1
   10808    10443    10444 1
   10809    10443    10447 1
   10810    10444    10445 1
   10811    10445    10446 1
   10812    10446    10452 1
   10813    10447    10448 1
   10814    10447    10451 1
   10815    10448    10449 1
   10816    10449    10450 1
   10817    10449    10453 1
   10818    10450    10451 1
   10819    10450    10456 1
   10820    10454    10455 1
   10821    10454    10462 1
   10822    10455    10456 1
   10823    10455    10463 1
   10824    10456    10457 1
   10825    10457    10458 1
   10826    10457    10461 1
   10827    10458    10459 1
   10828    10459    10460 1
   10829    10460    10461 1
   10830    10461    10462 1
   10831    10462    10590 1
   10832    10464    10465 1
   10833    10464    10484 1
   10834    10464    10485 1
   10835    10465    10466 1
   10836    10465    10476 1
   10837    10465    10486 1
   10838    10466    10467 1
   10839    10466    10487 1
   10840    10466    10488 1
   10841    10467    10468 1
   10842    10467    10489 1
   10843    10467    10490 1
   10844    10468    10469 1
   10845    10468    10491 1
   10846    10468    10492 1
   10847    10469    10470 1
   10848    10469    10493 1
   10849    10469    10494 1
   10850    10470    10471 1
   10851    10470    10495 1
   10852    10470    10496 1
   10853    10471    10472 1
   10854    10471    10497 1
   10855    10471    10498 1
   10856    10472    10473 1
   10857    10472    10499 1
   10858    10472    10500 1
   10859    10473    10474 1
   10860    10473    10501 1
   10861    10473    10502 1
   10862    10474    10475 1
   10863    10474    10503 1
   10864    10474    10504 1
   10865    10475    10505 1
   10866    10475    10506 1
   10867    10475    10507 1
   10868    10476    10477 1
   10869    10476    10508 1
   10870    10476    10509 1
   10871    10477    10478 1
   10872    10477    10510 1
   10873    10477    10511 1
   10874    10478    10479 1
   10875    10478    10512 1
   10876    10478    10513 1
   10877    10479    10480 1
   10878    10479    10514 1
   10879    10479    10515 1
   10880    10480    10481 1
   10881    10480    10516 1
   10882    10480    10517 1
   10883    10481    10482 1
   10884    10481    10518 1
   10885    10481    10519 1
   10886    10482    10483 1
   10887    10482    10520 1
   10888    10482    10521 1
   10889    10483    10522 1
   10890    10483    10523 1
   10891    10483    10524 1
   10892    10525    10526 1
   10893    10525    10545 1
   10894    10525    10546 1
   10895    10526    10527 1
   10896    10526    10537 1
   10897    10526    10547 1
   10898    10527    10528 1
   10899    10527    10548 1
   10900    10527    10549 1
   10901    10528    10529 1
   10902    10528    10550 1
   10903    10528    10551 1
   10904    10529    10530 1
   10905    10529    10552 1
   10906    10529    10553 1
   10907    10530    10531 1
   10908    10530    10554 1
   10909    10530    10555 1
   10910    10531    10532 1
   10911    10531    10556 1
   10912    10531    10557 1
   10913    10532    10533 1
   10914    10532    10558 1
   10915    10532    10559 1
   10916    10533    10534 1
   10917    10533    10560 1
   10918    10533    10561 1
   10919    10534    10535 1
   10920    10534    10562 1
   10921    10534    10563 1
   10922    10535    10536 1
   10923    10535    10564 1
   10924    10535    10565 1
   10925    10536    10566 1
   10926    10536    10567 1
   10927    10536    10568 1
   10928    10537    10538 1
   10929    10537    10569 1
   10930    10537    10570 1
   10931    10538    10539 1
   10932    10538    10571 1
   10933    10538    10572 1
   10934    10539    10540 1
   10935    10539    10573 1
   10936    10539    10574 1
   10937    10540    10541 1
   10938    10540    10575 1
   10939    10540    10576 1
   10940    10541    10542 1
   10941    10541    10577 1
   10942    10541    10578 1
   10943    10542    10543 1
   10944    10542    10579 1
   10945    10542    10580 1
   10946    10543    10544 1
   10947    10543    10581 1
   10948    10543    10582 1
   10949    10544    10583 1
   10950    10544    10584 1
   10951    10544    10585 1
   10952    10586    10587 1
   10953    10586    10593 1
   10954    10586    10609 1
   10955    10586    10670 1
   10956    10587    10588 1
   10957    10587    10591 1
   10958    10588    10589 1
   10959    10588    10592 1
   10960    10589    10590 1
   10961    10590    10591 1
   10962    10591    10597 1
   10963    10592    10593 1
   10964    10592    10596 1
   10965    10593    10594 1
   10966    10594    10595 1
   10967    10594    10598 1
   10968    10595    10596 1
   10969    10595    10601 1
   10970    10599    10600 1
   10971    10599    10607 1
   10972    10600    10601 1
   10973    10600    10608 1
   10974    10601    10602 1
   10975    10602    10603 1
   10976    10602    10606 1
   10977    10603    10604 1
   10978    10604    10605 1
   10979    10605    10606 1
   10980    10606    10607 1
   10981    10607    10735 1
   10982    10609    10610 1
   10983    10609    10629 1
   10984    10609    10630 1
   10985    10610    10611 1
   10986    10610    10621 1
   10987    10610    10631 1
   10988    10611    10612 1
   10989    10611    10632 1
   10990    10611    10633 1
   10991    10612    10613 1
   10992    10612    10634 1
   10993    10612    10635 1
   10994    10613    10614 1
   10995    10613    10636 1
   10996    10613    10637 1
   10997    10614    10615 1
   10998    10614    10638 1
   10999    10614    10639 1
   11000    10615    10616 1
   11001    10615    10640 1
   11002    10615    10641 1
   11003    10616    10617 1
   11004    10616    10642 1
   11005    10616    10643 1
   11006    10617    10618 1
   11007    10617    10644 1
   11008    10617    10645 1
   11009    10618    10619 1
   11010    10618    10646 1
   11011    10618    10647 1
   11012    10619    10620 1
   11013    10619    10648 1
   11014    10619    10649 1
   11015    10620    10650 1
   11016    10620    10651 1
   11017    10620    10652 1
   11018    10621    10622 1
   11019    10621    10653 1
   11020    10621    10654 1
   11021    10622    10623 1
   11022    10622    10655 1
   11023    10622    10656 1
   11024    10623    10624 1
   11025    10623    10657 1
   11026    10623    10658 1
   11027    10624    10625 1
   11028    10624    10659 1
   11029    10624    10660 1
   11030    10625    10626 1
   11031    10625    10661 1
   11032    10625    10662 1
   11033    10626    10627 1
   11034    10626    10663 1
   11035    10626    10664 1
   11036    10627    10628 1
   11037    10627    10665 1
   11038    10627    10666 1
   11039    10628    10667 1
   11040    10628    10668 1
   11041    10628    10669 1
   11042    10670    10671 1
   11043    10670    10690 1
   11044    10670    10691 1
   11045    10671    10672 1
   11046    10671    10682 1
   11047    10671    10692 1
   11048    10672    10673 1
   11049    10672    10693 1
   11050    10672    10694 1
   11051    10673    10674 1
   11052    10673    10695 1
   11053    10673    10696 1
   11054    10674    10675 1
   11055    10674    10697 1
   11056    10674    10698 1
   11057    10675    10676 1
   11058    10675    10699 1
   11059    10675    10700 1
   11060    10676    10677 1
   11061    10676    10701 1
   11062    10676    10702 1
   11063    10677    10678 1
   11064    10677    10703 1
   11065    10677    10704 1
   11066    10678    10679 1
   11067    10678    10705 1
   11068    10678    10706 1
   11069    10679    10680 1
   11070    10679    10707 1
   11071    10679    10708 1
   11072    10680    10681 1
   11073    10680    10709 1
   11074    10680    10710 1
   11075    10681    10711 1
   11076    10681    10712 1
   11077    10681    10713 1
   11078    10682    10683 1
   11079    10682    10714 1
   11080    10682    10715 1
   11081    10683    10684 1
   11082    10683    10716 1
   11083    10683    10717 1
   11084    10684    10685 1
   11085    10684    10718 1
   11086    10684    10719 1
   11087    10685    10686 1
   11088    10685    10720 1
   11089    10685    10721 1
   11090    10686    10687 1
   11091    10686    10722 1
   11092    10686    10723 1
   11093    10687    10688 1
   11094    10687    10724 1
   11095    10687    10725 1
   11096    10688    10689 1
   11097    10688    10726 1
   11098    10688    10727 1
   11099    10689    10728 1
   11100    10689    10729 1
   11101    10689    10730 1
   11102    10731    10732 1
   11103    10731    10738 1
   11104    10731    10754 1
   11105    10731    10815 1
   11106    10732    10733 1
   11107    10732    10736 1
   11108    10733    10734 1
   11109    10733    10737 1
   11110    10734    10735 1
   11111    10735    10736 1
   11112    10736    10742 1
   11113    10737    10738 1
   11114    10737    10741 1
   11115    10738    10739 1
   11116    10739    10740 1
   11117    10739    10743 1
   11118    10740    10741 1
   11119    10740    10746 1
   11120    10744    10745 1
   11121    10744    10752 1
   11122    10745    10746 1
   11123    10745    10753 1
   11124    10746    10747 1
   11125    10747    10748 1
   11126    10747    10751 1
   11127    10748    10749 1
   11128    10749    10750 1
   11129    10750    10751 1
   11130    10751    10752 1
   11131    10752    10880 1
   11132    10754    10755 1
   11133    10754    10774 1
   11134    10754    10775 1
   11135    10755    10756 1
   11136    10755    10766 1
   11137    10755    10776 1
   11138    10756    10757 1
   11139    10756    10777 1
   11140    10756    10778 1
   11141    10757    10758 1
   11142    10757    10779 1
   11143    10757    10780 1
   11144    10758    10759 1
   11145    10758    10781 1
   11146    10758    10782 1
   11147    10759    10760 1
   11148    10759    10783 1
   11149    10759    10784 1
   11150    10760    10761 1
   11151    10760    10785 1
   11152    10760    10786 1
   11153    10761    10762 1
   11154    10761    10787 1
   11155    10761    10788 1
   11156    10762    10763 1
   11157    10762    10789 1
   11158    10762    10790 1
   11159    10763    10764 1
   11160    10763    10791 1
   11161    10763    10792 1
   11162    10764    10765 1
   11163    10764    10793 1
   11164    10764    10794 1
   11165    10765    10795 1
   11166    10765    10796 1
   11167    10765    10797 1
   11168    10766    10767 1
   11169    10766    10798 1
   11170    10766    10799 1
   11171    10767    10768 1
   11172    10767    10800 1
   11173    10767    10801 1
   11174    10768    10769 1
   11175    10768    10802 1
   11176    10768    10803 1
   11177    10769    10770 1
   11178    10769    10804 1
   11179    10769    10805 1
   11180    10770    10771 1
   11181    10770    10806 1
   11182    10770    10807 1
   11183    10771    10772 1
   11184    10771    10808 1
   11185    10771    10809 1
   11186    10772    10773 1
   11187    10772    10810 1
   11188    10772    10811 1
   11189    10773    10812 1
   11190    10773    10813 1
   11191    10773    10814 1
   11192    10815    10816 1
   11193    10815    10835 1
   11194    10815    10836 1
   11195    10816    10817 1
   11196    10816    10827 1
   11197    10816    10837 1
   11198    10817    10818 1
   11199    10817    10838 1
   11200    10817    10839 1
   11201    10818    10819 1
   11202    10818    10840 1
   11203    10818    10841 1
   11204    10819    10820 1
   11205    10819    10842 1
   11206    10819    10843 1
   11207    10820    10821 1
   11208    10820    10844 1
   11209    10820    10845 1
   11210    10821    10822 1
   11211    10821    10846 1
   11212    10821    10847 1
   11213    10822    10823 1
   11214    10822    10848 1
   11215    10822    10849 1
   11216    10823    10824 1
   11217    10823    10850 1
   11218    10823    10851 1
   11219    10824    10825 1
   11220    10824    10852 1
   11221    10824    10853 1
   11222    10825    10826 1
   11223    10825    10854 1
   11224    10825    10855 1
   11225    10826    10856 1
   11226    10826    10857 1
   11227    10826    10858 1
   11228    10827    10828 1
   11229    10827    10859 1
   11230    10827    10860 1
   11231    10828    10829 1
   11232    10828    10861 1
   11233    10828    10862 1
   11234    10829    10830 1
   11235    10829    10863 1
   11236    10829    10864 1
   11237    10830    10831 1
   11238    10830    10865 1
   11239    10830    10866 1
   11240    10831    10832 1
   11241    10831    10867 1
   11242    10831    10868 1
   11243    10832    10833 1
   11244    10832    10869 1
   11245    10832    10870 1
   11246    10833    10834 1
   11247    10833    10871 1
   11248    10833    10872 1
   11249    10834    10873 1
   11250    10834    10874 1
   11251    10834    10875 1
   11252    10876    10877 1
   11253    10876    10883 1
   11254    10876    10899 1
   11255    10876    10960 1
   11256    10877    10878 1
   11257    10877    10881 1
   11258    10878    10879 1
   11259    10878    10882 1
   11260    10879    10880 1
   11261    10880    10881 1
   11262    10881    10887 1
   11263    10882    10883 1
   11264    10882    10886 1
   11265    10883    10884 1
   11266    10884    10885 1
   11267    10884    10888 1
   11268    10885    10886 1
   11269    10885    10891 1
   11270    10889    10890 1
   11271    10889    10897 1
   11272    10890    10891 1
   11273    10890    10898 1
   11274    10891    10892 1
   11275    10892    10893 1
   11276    10892    10896 1
   11277    10893    10894 1
   11278    10894    10895 1
   11279    10895    10896 1
   11280    10896    10897 1
   11281    10897    11025 1
   11282    10899    10900 1
   11283    10899    10919 1
   11284    10899    10920 1
   11285    10900    10901 1
   11286    10900    10911 1
   11287    10900    10921 1
   11288    10901    10902 1
   11289    10901    10922 1
   11290    10901    10923 1
   11291    10902    10903 1
   11292    10902    10924 1
   11293    10902    10925 1
   11294    10903    10904 1
   11295    10903    10926 1
   11296    10903    10927 1
   11297    10904    10905 1
   11298    10904    10928 1
   11299    10904    10929 1
   11300    10905    10906 1
   11301    10905    10930 1
   11302    10905    10931 1
   11303    10906    10907 1
   11304    10906    10932 1
   11305    10906    10933 1
   11306    10907    10908 1
   11307    10907    10934 1
   11308    10907    10935 1
   11309    10908    10909 1
   11310    10908    10936 1
   11311    10908    10937 1
   11312    10909    10910 1
   11313    10909    10938 1
   11314    10909    10939 1
   11315    10910    10940 1
   11316    10910    10941 1
   11317    10910    10942 1
   11318    10911    10912 1
   11319    10911    10943 1
   11320    10911    10944 1
   11321    10912    10913 1
   11322    10912    10945 1
   11323    10912    10946 1
   11324    10913    10914 1
   11325    10913    10947 1
   11326    10913    10948 1
   11327    10914    10915 1
   11328    10914    10949 1
   11329    10914    10950 1
   11330    10915    10916 1
   11331    10915    10951 1
   11332    10915    10952 1
   11333    10916    10917 1
   11334    10916    10953 1
   11335    10916    10954 1
   11336    10917    10918 1
   11337    10917    10955 1
   11338    10917    10956 1
   11339    10918    10957 1
   11340    10918    10958 1
   11341    10918    10959 1
   11342    10960    10961 1
   11343    10960    10980 1
   11344    10960    10981 1
   11345    10961    10962 1
   11346    10961    10972 1
   11347    10961    10982 1
   11348    10962    10963 1
   11349    10962    10983 1
   11350    10962    10984 1
   11351    10963    10964 1
   11352    10963    10985 1
   11353    10963    10986 1
   11354    10964    10965 1
   11355    10964    10987 1
   11356    10964    10988 1
   11357    10965    10966 1
   11358    10965    10989 1
   11359    10965    10990 1
   11360    10966    10967 1
   11361    10966    10991 1
   11362    10966    10992 1
   11363    10967    10968 1
   11364    10967    10993 1
   11365    10967    10994 1
   11366    10968    10969 1
   11367    10968    10995 1
   11368    10968    10996 1
   11369    10969    10970 1
   11370    10969    10997 1
   11371    10969    10998 1
   11372    10970    10971 1
   11373    10970    10999 1
   11374    10970    11000 1
   11375    10971    11001 1
   11376    10971    11002 1
   11377    10971    11003 1
   11378    10972    10973 1
   11379    10972    11004 1
   11380    10972    11005 1
   11381    10973    10974 1
   11382    10973    11006 1
   11383    10973    11007 1
   11384    10974    10975 1
   11385    10974    11008 1
   11386    10974    11009 1
   11387    10975    10976 1
   11388    10975    11010 1
   11389    10975    11011 1
   11390    10976    10977 1
   11391    10976    11012 1
   11392    10976    11013 1
   11393    10977    10978 1
   11394    10977    11014 1
   11395    10977    11015 1
   11396    10978    10979 1
   11397    10978    11016 1
   11398    10978    11017 1
   11399    10979    11018 1
   11400    10979    11019 1
   11401    10979    11020 1
   11402    11021    11022 1
   11403    11021    11028 1
   11404    11021    11044 1
   11405    11021    11105 1
   11406    11022    11023 1
   11407    11022    11026 1
   11408    11023    11024 1
   11409    11023    11027 1
   11410    11024    11025 1
   11411    11025    11026 1
   11412    11026    11032 1
   11413    11027    11028 1
   11414    11027    11031 1
   11415    11028    11029 1
   11416    11029    11030 1
   11417    11029    11033 1
   11418    11030    11031 1
   11419    11030    11036 1
   11420    11034    11035 1
   11421    11034    11042 1
   11422    11035    11036 1
   11423    11035    11043 1
   11424    11036    11037 1
   11425    11037    11038 1
   11426    11037    11041 1
   11427    11038    11039 1
   11428    11039    11040 1
   11429    11040    11041 1
   11430    11041    11042 1
   11431    11042    11170 1
   11432    11044    11045 1
   11433    11044    11064 1
   11434    11044    11065 1
   11435    11045    11046 1
   11436    11045    11056 1
   11437    11045    11066 1
   11438    11046    11047 1
   11439    11046    11067 1
   11440    11046    11068 1
   11441    11047    11048 1
   11442    11047    11069 1
   11443    11047    11070 1
   11444    11048    11049 1
   11445    11048    11071 1
   11446    11048    11072 1
   11447    11049    11050 1
   11448    11049    11073 1
   11449    11049    11074 1
   11450    11050    11051 1
   11451    11050    11075 1
   11452    11050    11076 1
   11453    11051    11052 1
   11454    11051    11077 1
   11455    11051    11078 1
   11456    11052    11053 1
   11457    11052    11079 1
   11458    11052    11080 1
   11459    11053    11054 1
   11460    11053    11081 1
   11461    11053    11082 1
   11462    11054    11055 1
   11463    11054    11083 1
   11464    11054    11084 1
   11465    11055    11085 1
   11466    11055    11086 1
   11467    11055    11087 1
   11468    11056    11057 1
   11469    11056    11088 1
   11470    11056    11089 1
   11471    11057    11058 1
   11472    11057    11090 1
   11473    11057    11091 1
   11474    11058    11059 1
   11475    11058    11092 1
   11476    11058    11093 1
   11477    11059    11060 1
   11478    11059    11094 1
   11479    11059    11095 1
   11480    11060    11061 1
   11481    11060    11096 1
   11482    11060    11097 1
   11483    11061    11062 1
   11484    11061    11098 1
   11485    11061    11099 1
   11486    11062    11063 1
   11487    11062    11100 1
   11488    11062    11101 1
   11489    11063    11102 1
   11490    11063    11103 1
   11491    11063    11104 1
   11492    11105    11106 1
   11493    11105    11125 1
   11494    11105    11126 1
   11495    11106    11107 1
   11496    11106    11117 1
   11497    11106    11127 1
   11498    11107    11108 1
   11499    11107    11128 1
   11500    11107    11129 1
   11501    11108    11109 1
   11502    11108    11130 1
   11503    11108    11131 1
   11504    11109    11110 1
   11505    11109    11132 1
   11506    11109    11133 1
   11507    11110    11111 1
   11508    11110    11134 1
   11509    11110    11135 1
   11510    11111    11112 1
   11511    11111    11136 1
   11512    11111    11137 1
   11513    11112    11113 1
   11514    11112    11138 1
   11515    11112    11139 1
   11516    11113    11114 1
   11517    11113    11140 1
   11518    11113    11141 1
   11519    11114    11115 1
   11520    11114    11142 1
   11521    11114    11143 1
   11522    11115    11116 1
   11523    11115    11144 1
   11524    11115    11145 1
   11525    11116    11146 1
   11526    11116    11147 1
   11527    11116    11148 1
   11528    11117    11118 1
   11529    11117    11149 1
   11530    11117    11150 1
   11531    11118    11119 1
   11532    11118    11151 1
   11533    11118    11152 1
   11534    11119    11120 1
   11535    11119    11153 1
   11536    11119    11154 1
   11537    11120    11121 1
   11538    11120    11155 1
   11539    11120    11156 1
   11540    11121    11122 1
   11541    11121    11157 1
   11542    11121    11158 1
   11543    11122    11123 1
   11544    11122    11159 1
   11545    11122    11160 1
   11546    11123    11124 1
   11547    11123    11161 1
   11548    11123    11162 1
   11549    11124    11163 1
   11550    11124    11164 1
   11551    11124    11165 1
   11552    11166    11167 1
   11553    11166    11173 1
   11554    11166    11189 1
   11555    11166    11250 1
   11556    11167    11168 1
   11557    11167    11171 1
   11558    11168    11169 1
   11559    11168    11172 1
   11560    11169    11170 1
   11561    11170    11171 1
   11562    11171    11177 1
   11563    11172    11173 1
   11564    11172    11176 1
   11565    11173    11174 1
   11566    11174    11175 1
   11567    11174    11178 1
   11568    11175    11176 1
   11569    11175    11181 1
   11570    11179    11180 1
   11571    11179    11187 1
   11572    11180    11181 1
   11573    11180    11188 1
   11574    11181    11182 1
   11575    11182    11183 1
   11576    11182    11186 1
   11577    11183    11184 1
   11578    11184    11185 1
   11579    11185    11186 1
   11580    11186    11187 1
   11581    11187    11315 1
   11582    11189    11190 1
   11583    11189    11209 1
   11584    11189    11210 1
   11585    11190    11191 1
   11586    11190    11201 1
   11587    11190    11211 1
   11588    11191    11192 1
   11589    11191    11212 1
   11590    11191    11213 1
   11591    11192    11193 1
   11592    11192    11214 1
   11593    11192    11215 1
   11594    11193    11194 1
   11595    11193    11216 1
   11596    11193    11217 1
   11597    11194    11195 1
   11598    11194    11218 1
   11599    11194    11219 1
   11600    11195    11196 1
   11601    11195    11220 1
   11602    11195    11221 1
   11603    11196    11197 1
   11604    11196    11222 1
   11605    11196    11223 1
   11606    11197    11198 1
   11607    11197    11224 1
   11608    11197    11225 1
   11609    11198    11199 1
   11610    11198    11226 1
   11611    11198    11227 1
   11612    11199    11200 1
   11613    11199    11228 1
   11614    11199    11229 1
   11615    11200    11230 1
   11616    11200    11231 1
   11617    11200    11232 1
   11618    11201    11202 1
   11619    11201    11233 1
   11620    11201    11234 1
   11621    11202    11203 1
   11622    11202    11235 1
   11623    11202    11236 1
   11624    11203    11204 1
   11625    11203    11237 1
   11626    11203    11238 1
   11627    11204    11205 1
   11628    11204    11239 1
   11629    11204    11240 1
   11630    11205    11206 1
   11631    11205    11241 1
   11632    11205    11242 1
   11633    11206    11207 1
   11634    11206    11243 1
   11635    11206    11244 1
   11636    11207    11208 1
   11637    11207    11245 1
   11638    11207    11246 1
   11639    11208    11247 1
   11640    11208    11248 1
   11641    11208    11249 1
   11642    11250    11251 1
   11643    11250    11270 1
   11644    11250    11271 1
   11645    11251    11252 1
   11646    11251    11262 1
   11647    11251    11272 1
   11648    11252    11253 1
   11649    11252    11273 1
   11650    11252    11274 1
   11651    11253    11254 1
   11652    11253    11275 1
   11653    11253    11276 1
   11654    11254    11255 1
   11655    11254    11277 1
   11656    11254    11278 1
   11657    11255    11256 1
   11658    11255    11279 1
   11659    11255    11280 1
   11660    11256    11257 1
   11661    11256    11281 1
   11662    11256    11282 1
   11663    11257    11258 1
   11664    11257    11283 1
   11665    11257    11284 1
   11666    11258    11259 1
   11667    11258    11285 1
   11668    11258    11286 1
   11669    11259    11260 1
   11670    11259    11287 1
   11671    11259    11288 1
   11672    11260    11261 1
   11673    11260    11289 1
   11674    11260    11290 1
   11675    11261    11291 1
   11676    11261    11292 1
   11677    11261    11293 1
   11678    11262    11263 1
   11679    11262    11294 1
   11680    11262    11295 1
   11681    11263    11264 1
   11682    11263    11296 1
   11683    11263    11297 1
   11684    11264    11265 1
   11685    11264    11298 1
   11686    11264    11299 1
   11687    11265    11266 1
   11688    11265    11300 1
   11689    11265    11301 1
   11690    11266    11267 1
   11691    11266    11302 1
   11692    11266    11303 1
   11693    11267    11268 1
   11694    11267    11304 1
   11695    11267    11305 1
   11696    11268    11269 1
   11697    11268    11306 1
   11698    11268    11307 1
   11699    11269    11308 1
   11700    11269    11309 1
   11701    11269    11310 1
   11702    11311    11312 1
   11703    11311    11318 1
   11704    11311    11334 1
   11705    11311    11395 1
   11706    11312    11313 1
   11707    11312    11316 1
   11708    11313    11314 1
   11709    11313    11317 1
   11710    11314    11315 1
   11711    11315    11316 1
   11712    11316    11322 1
   11713    11317    11318 1
   11714    11317    11321 1
   11715    11318    11319 1
   11716    11319    11320 1
   11717    11319    11323 1
   11718    11320    11321 1
   11719    11320    11326 1
   11720    11324    11325 1
   11721    11324    11332 1
   11722    11325    11326 1
   11723    11325    11333 1
   11724    11326    11327 1
   11725    11327    11328 1
   11726    11327    11331 1
   11727    11328    11329 1
   11728    11329    11330 1
   11729    11330    11331 1
   11730    11331    11332 1
   11731    11332    11460 1
   11732    11334    11335 1
   11733    11334    11354 1
   11734    11334    11355 1
   11735    11335    11336 1
   11736    11335    11346 1
   11737    11335    11356 1
   11738    11336    11337 1
   11739    11336    11357 1
   11740    11336    11358 1
   11741    11337    11338 1
   11742    11337    11359 1
   11743    11337    11360 1
   11744    11338    11339 1
   11745    11338    11361 1
   11746    11338    11362 1
   11747    11339    11340 1
   11748    11339    11363 1
   11749    11339    11364 1
   11750    11340    11341 1
   11751    11340    11365 1
   11752    11340    11366 1
   11753    11341    11342 1
   11754    11341    11367 1
   11755    11341    11368 1
   11756    11342    11343 1
   11757    11342    11369 1
   11758    11342    11370 1
   11759    11343    11344 1
   11760    11343    11371 1
   11761    11343    11372 1
   11762    11344    11345 1
   11763    11344    11373 1
   11764    11344    11374 1
   11765    11345    11375 1
   11766    11345    11376 1
   11767    11345    11377 1
   11768    11346    11347 1
   11769    11346    11378 1
   11770    11346    11379 1
   11771    11347    11348 1
   11772    11347    11380 1
   11773    11347    11381 1
   11774    11348    11349 1
   11775    11348    11382 1
   11776    11348    11383 1
   11777    11349    11350 1
   11778    11349    11384 1
   11779    11349    11385 1
   11780    11350    11351 1
   11781    11350    11386 1
   11782    11350    11387 1
   11783    11351    11352 1
   11784    11351    11388 1
   11785    11351    11389 1
   11786    11352    11353 1
   11787    11352    11390 1
   11788    11352    11391 1
   11789    11353    11392 1
   11790    11353    11393 1
   11791    11353    11394 1
   11792    11395    11396 1
   11793    11395    11415 1
   11794    11395    11416 1
   11795    11396    11397 1
   11796    11396    11407 1
   11797    11396    11417 1
   11798    11397    11398 1
   11799    11397    11418 1
   11800    11397    11419 1
   11801    11398    11399 1
   11802    11398    11420 1
   11803    11398    11421 1
   11804    11399    11400 1
   11805    11399    11422 1
   11806    11399    11423 1
   11807    11400    11401 1
   11808    11400    11424 1
   11809    11400    11425 1
   11810    11401    11402 1
   11811    11401    11426 1
   11812    11401    11427 1
   11813    11402    11403 1
   11814    11402    11428 1
   11815    11402    11429 1
   11816    11403    11404 1
   11817    11403    11430 1
   11818    11403    11431 1
   11819    11404    11405 1
   11820    11404    11432 1
   11821    11404    11433 1
   11822    11405    11406 1
   11823    11405    11434 1
   11824    11405    11435 1
   11825    11406    11436 1
   11826    11406    11437 1
   11827    11406    11438 1
   11828    11407    11408 1
   11829    11407    11439 1
   11830    11407    11440 1
   11831    11408    11409 1
   11832    11408    11441 1
   11833    11408    11442 1
   11834    11409    11410 1
   11835    11409    11443 1
   11836    11409    11444 1
   11837    11410    11411 1
   11838    11410    11445 1
   11839    11410    11446 1
   11840    11411    11412 1
   11841    11411    11447 1
   11842    11411    11448 1
   11843    11412    11413 1
   11844    11412    11449 1
   11845    11412    11450 1
   11846    11413    11414 1
   11847    11413    11451 1
   11848    11413    11452 1
   11849    11414    11453 1
   11850    11414    11454 1
   11851    11414    11455 1
   11852    11456    11457 1
   11853    11456    11463 1
   11854    11456    11479 1
   11855    11456    11540 1
   11856    11457    11458 1
   11857    11457    11461 1
   11858    11458    11459 1
   11859    11458    11462 1
   11860    11459    11460 1
   11861    11460    11461 1
   11862    11461    11467 1
   11863    11462    11463 1
   11864    11462    11466 1
   11865    11463    11464 1
   11866    11464    11465 1
   11867    11464    11468 1
   11868    11465    11466 1
   11869    11465    11471 1
   11870    11469    11470 1
   11871    11469    11477 1
   11872    11470    11471 1
   11873    11470    11478 1
   11874    11471    11472 1
   11875    11472    11473 1
   11876    11472    11476 1
   11877    11473    11474 1
   11878    11474    11475 1
   11879    11475    11476 1
   11880    11476    11477 1
   11881    11477    11605 1
   11882    11479    11480 1
   11883    11479    11499 1
   11884    11479    11500 1
   11885    11480    11481 1
   11886    11480    11491 1
   11887    11480    11501 1
   11888    11481    11482 1
   11889    11481    11502 1
   11890    11481    11503 1
   11891    11482    11483 1
   11892    11482    11504 1
   11893    11482    11505 1
   11894    11483    11484 1
   11895    11483    11506 1
   11896    11483    11507 1
   11897    11484    11485 1
   11898    11484    11508 1
   11899    11484    11509 1
   11900    11485    11486 1
   11901    11485    11510 1
   11902    11485    11511 1
   11903    11486    11487 1
   11904    11486    11512 1
   11905    11486    11513 1
   11906    11487    11488 1
   11907    11487    11514 1
   11908    11487    11515 1
   11909    11488    11489 1
   11910    11488    11516 1
   11911    11488    11517 1
   11912    11489    11490 1
   11913    11489    11518 1
   11914    11489    11519 1
   11915    11490    11520 1
   11916    11490    11521 1
   11917    11490    11522 1
   11918    11491    11492 1
   11919    11491    11523 1
   11920    11491    11524 1
   11921    11492    11493 1
   11922    11492    11525 1
   11923    11492    11526 1
   11924    11493    11494 1
   11925    11493    11527 1
   11926    11493    11528 1
   11927    11494    11495 1
   11928    11494    11529 1
   11929    11494    11530 1
   11930    11495    11496 1
   11931    11495    11531 1
   11932    11495    11532 1
   11933    11496    11497 1
   11934    11496    11533 1
   11935    11496    11534 1
   11936    11497    11498 1
   11937    11497    11535 1
   11938    11497    11536 1
   11939    11498    11537 1
   11940    11498    11538 1
   11941    11498    11539 1
   11942    11540    11541 1
   11943    11540    11560 1
   11944    11540    11561 1
   11945    11541    11542 1
   11946    11541    11552 1
   11947    11541    11562 1
   11948    11542    11543 1
   11949    11542    11563 1
   11950    11542    11564 1
   11951    11543    11544 1
   11952    11543    11565 1
   11953    11543    11566 1
   11954    11544    11545 1
   11955    11544    11567 1
   11956    11544    11568 1
   11957    11545    11546 1
   11958    11545    11569 1
   11959    11545    11570 1
   11960    11546    11547 1
   11961    11546    11571 1
   11962    11546    11572 1
   11963    11547    11548 1
   11964    11547    11573 1
   11965    11547    11574 1
   11966    11548    11549 1
   11967    11548    11575 1
   11968    11548    11576 1
   11969    11549    11550 1
   11970    11549    11577 1
   11971    11549    11578 1
   11972    11550    11551 1
   11973    11550    11579 1
   11974    11550    11580 1
   11975    11551    11581 1
   11976    11551    11582 1
   11977    11551    11583 1
   11978    11552    11553 1
   11979    11552    11584 1
   11980    11552    11585 1
   11981    11553    11554 1
   11982    11553    11586 1
   11983    11553    11587 1
   11984    11554    11555 1
   11985    11554    11588 1
   11986    11554    11589 1
   11987    11555    11556 1
   11988    11555    11590 1
   11989    11555    11591 1
   11990    11556    11557 1
   11991    11556    11592 1
   11992    11556    11593 1
   11993    11557    11558 1
   11994    11557    11594 1
   11995    11557    11595 1
   11996    11558    11559 1
   11997    11558    11596 1
   11998    11558    11597 1
   11999    11559    11598 1
   12000    11559    11599 1
   12001    11559    11600 1
   12002    11601    11602 1
   12003    11601    11608 1
   12004    11601    11624 1
   12005    11601    11685 1
   12006    11602    11603 1
   12007    11602    11606 1
   12008    11603    11604 1
   12009    11603    11607 1
   12010    11604    11605 1
   12011    11605    11606 1
   12012    11606    11612 1
   12013    11607    11608 1
   12014    11607    11611 1
   12015    11608    11609 1
   12016    11609    11610 1
   12017    11609    11613 1
   12018    11610    11611 1
   12019    11610    11616 1
   12020    11614    11615 1
   12021    11614    11622 1
   12022    11615    11616 1
   12023    11615    11623 1
   12024    11616    11617 1
   12025    11617    11618 1
   12026    11617    11621 1
   12027    11618    11619 1
   12028    11619    11620 1
   12029    11620    11621 1
   12030    11621    11622 1
   12031    11622    11750 1
   12032    11624    11625 1
   12033    11624    11644 1
   12034    11624    11645 1
   12035    11625    11626 1
   12036    11625    11636 1
   12037    11625    11646 1
   12038    11626    11627 1
   12039    11626    11647 1
   12040    11626    11648 1
   12041    11627    11628 1
   12042    11627    11649 1
   12043    11627    11650 1
   12044    11628    11629 1
   12045    11628    11651 1
   12046    11628    11652 1
   12047    11629    11630 1
   12048    11629    11653 1
   12049    11629    11654 1
   12050    11630    11631 1
   12051    11630    11655 1
   12052    11630    11656 1
   12053    11631    11632 1
   12054    11631    11657 1
   12055    11631    11658 1
   12056    11632    11633 1
   12057    11632    11659 1
   12058    11632    11660 1
   12059    11633    11634 1
   12060    11633    11661 1
   12061    11633    11662 1
   12062    11634    11635 1
   12063    11634    11663 1
   12064    11634    11664 1
   12065    11635    11665 1
   12066    11635    11666 1
   12067    11635    11667 1
   12068    11636    11637 1
   12069    11636    11668 1
   12070    11636    11669 1
   12071    11637    11638 1
   12072    11637    11670 1
   12073    11637    11671 1
   12074    11638    11639 1
   12075    11638    11672 1
   12076    11638    11673 1
   12077    11639    11640 1
   12078    11639    11674 1
   12079    11639    11675 1
   12080    11640    11641 1
   12081    11640    11676 1
   12082    11640    11677 1
   12083    11641    11642 1
   12084    11641    11678 1
   12085    11641    11679 1
   12086    11642    11643 1
   12087    11642    11680 1
   12088    11642    11681 1
   12089    11643    11682 1
   12090    11643    11683 1
   12091    11643    11684 1
   12092    11685    11686 1
   12093    11685    11705 1
   12094    11685    11706 1
   12095    11686    11687 1
   12096    11686    11697 1
   12097    11686    11707 1
   12098    11687    11688 1
   12099    11687    11708 1
   12100    11687    11709 1
   12101    11688    11689 1
   12102    11688    11710 1
   12103    11688    11711 1
   12104    11689    11690 1
   12105    11689    11712 1
   12106    11689    11713 1
   12107    11690    11691 1
   12108    11690    11714 1
   12109    11690    11715 1
   12110    11691    11692 1
   12111    11691    11716 1
   12112    11691    11717 1
   12113    11692    11693 1
   12114    11692    11718 1
   12115    11692    11719 1
   12116    11693    11694 1
   12117    11693    11720 1
   12118    11693    11721 1
   12119    11694    11695 1
   12120    11694    11722 1
   12121    11694    11723 1
   12122    11695    11696 1
   12123    11695    11724 1
   12124    11695    11725 1
   12125    11696    11726 1
   12126    11696    11727 1
   12127    11696    11728 1
   12128    11697    11698 1
   12129    11697    11729 1
   12130    11697    11730 1
   12131    11698    11699 1
   12132    11698    11731 1
   12133    11698    11732 1
   12134    11699    11700 1
   12135    11699    11733 1
   12136    11699    11734 1
   12137    11700    11701 1
   12138    11700    11735 1
   12139    11700    11736 1
   12140    11701    11702 1
   12141    11701    11737 1
   12142    11701    11738 1
   12143    11702    11703 1
   12144    11702    11739 1
   12145    11702    11740 1
   12146    11703    11704 1
   12147    11703    11741 1
   12148    11703    11742 1
   12149    11704    11743 1
   12150    11704    11744 1
   12151    11704    11745 1
   12152    11746    11747 1
   12153    11746    11753 1
   12154    11746    11769 1
   12155    11746    11830 1
   12156    11747    11748 1
   12157    11747    11751 1
   12158    11748    11749 1
   12159    11748    11752 1
   12160    11749    11750 1
   12161    11750    11751 1
   12162    11751    11757 1
   12163    11752    11753 1
   12164    11752    11756 1
   12165    11753    11754 1
   12166    11754    11755 1
   12167    11754    11758 1
   12168    11755    11756 1
   12169    11755    11761 1
   12170    11759    11760 1
   12171    11759    11767 1
   12172    11760    11761 1
   12173    11760    11768 1
   12174    11761    11762 1
   12175    11762    11763 1
   12176    11762    11766 1
   12177    11763    11764 1
   12178    11764    11765 1
   12179    11765    11766 1
   12180    11766    11767 1
   12181    11767    11895 1
   12182    11769    11770 1
   12183    11769    11789 1
   12184    11769    11790 1
   12185    11770    11771 1
   12186    11770    11781 1
   12187    11770    11791 1
   12188    11771    11772 1
   12189    11771    11792 1
   12190    11771    11793 1
   12191    11772    11773 1
   12192    11772    11794 1
   12193    11772    11795 1
   12194    11773    11774 1
   12195    11773    11796 1
   12196    11773    11797 1
   12197    11774    11775 1
   12198    11774    11798 1
   12199    11774    11799 1
   12200    11775    11776 1
   12201    11775    11800 1
   12202    11775    11801 1
   12203    11776    11777 1
   12204    11776    11802 1
   12205    11776    11803 1
   12206    11777    11778 1
   12207    11777    11804 1
   12208    11777    11805 1
   12209    11778    11779 1
   12210    11778    11806 1
   12211    11778    11807 1
   12212    11779    11780 1
   12213    11779    11808 1
   12214    11779    11809 1
   12215    11780    11810 1
   12216    11780    11811 1
   12217    11780    11812 1
   12218    11781    11782 1
   12219    11781    11813 1
   12220    11781    11814 1
   12221    11782    11783 1
   12222    11782    11815 1
   12223    11782    11816 1
   12224    11783    11784 1
   12225    11783    11817 1
   12226    11783    11818 1
   12227    11784    11785 1
   12228    11784    11819 1
   12229    11784    11820 1
   12230    11785    11786 1
   12231    11785    11821 1
   12232    11785    11822 1
   12233    11786    11787 1
   12234    11786    11823 1
   12235    11786    11824 1
   12236    11787    11788 1
   12237    11787    11825 1
   12238    11787    11826 1
   12239    11788    11827 1
   12240    11788    11828 1
   12241    11788    11829 1
   12242    11830    11831 1
   12243    11830    11850 1
   12244    11830    11851 1
   12245    11831    11832 1
   12246    11831    11842 1
   12247    11831    11852 1
   12248    11832    11833 1
   12249    11832    11853 1
   12250    11832    11854 1
   12251    11833    11834 1
   12252    11833    11855 1
   12253    11833    11856 1
   12254    11834    11835 1
   12255    11834    11857 1
   12256    11834    11858 1
   12257    11835    11836 1
   12258    11835    11859 1
   12259    11835    11860 1
   12260    11836    11837 1
   12261    11836    11861 1
   12262    11836    11862 1
   12263    11837    11838 1
   12264    11837    11863 1
   12265    11837    11864 1
   12266    11838    11839 1
   12267    11838    11865 1
   12268    11838    11866 1
   12269    11839    11840 1
   12270    11839    11867 1
   12271    11839    11868 1
   12272    11840    11841 1
   12273    11840    11869 1
   12274    11840    11870 1
   12275    11841    11871 1
   12276    11841    11872 1
   12277    11841    11873 1
   12278    11842    11843 1
   12279    11842    11874 1
   12280    11842    11875 1
   12281    11843    11844 1
   12282    11843    11876 1
   12283    11843    11877 1
   12284    11844    11845 1
   12285    11844    11878 1
   12286    11844    11879 1
   12287    11845    11846 1
   12288    11845    11880 1
   12289    11845    11881 1
   12290    11846    11847 1
   12291    11846    11882 1
   12292    11846    11883 1
   12293    11847    11848 1
   12294    11847    11884 1
   12295    11847    11885 1
   12296    11848    11849 1
   12297    11848    11886 1
   12298    11848    11887 1
   12299    11849    11888 1
   12300    11849    11889 1
   12301    11849    11890 1
   12302    11891    11892 1
   12303    11891    11898 1
   12304    11891    11914 1
   12305    11891    11975 1
   12306    11892    11893 1
   12307    11892    11896 1
   12308    11893    11894 1
   12309    11893    11897 1
   12310    11894    11895 1
   12311    11895    11896 1
   12312    11896    11902 1
   12313    11897    11898 1
   12314    11897    11901 1
   12315    11898    11899 1
   12316    11899    11900 1
   12317    11899    11903 1
   12318    11900    11901 1
   12319    11900    11906 1
   12320    11904    11905 1
   12321    11904    11912 1
   12322    11905    11906 1
   12323    11905    11913 1
   12324    11906    11907 1
   12325    11907    11908 1
   12326    11907    11911 1
   12327    11908    11909 1
   12328    11909    11910 1
   12329    11910    11911 1
   12330    11911    11912 1
   12331    11912    12040 1
   12332    11914    11915 1
   12333    11914    11934 1
   12334    11914    11935 1
   12335    11915    11916 1
   12336    11915    11926 1
   12337    11915    11936 1
   12338    11916    11917 1
   12339    11916    11937 1
   12340    11916    11938 1
   12341    11917    11918 1
   12342    11917    11939 1
   12343    11917    11940 1
   12344    11918    11919 1
   12345    11918    11941 1
   12346    11918    11942 1
   12347    11919    11920 1
   12348    11919    11943 1
   12349    11919    11944 1
   12350    11920    11921 1
   12351    11920    11945 1
   12352    11920    11946 1
   12353    11921    11922 1
   12354    11921    11947 1
   12355    11921    11948 1
   12356    11922    11923 1
   12357    11922    11949 1
   12358    11922    11950 1
   12359    11923    11924 1
   12360    11923    11951 1
   12361    11923    11952 1
   12362    11924    11925 1
   12363    11924    11953 1
   12364    11924    11954 1
   12365    11925    11955 1
   12366    11925    11956 1
   12367    11925    11957 1
   12368    11926    11927 1
   12369    11926    11958 1
   12370    11926    11959 1
   12371    11927    11928 1
   12372    11927    11960 1
   12373    11927    11961 1
   12374    11928    11929 1
   12375    11928    11962 1
   12376    11928    11963 1
   12377    11929    11930 1
   12378    11929    11964 1
   12379    11929    11965 1
   12380    11930    11931 1
   12381    11930    11966 1
   12382    11930    11967 1
   12383    11931    11932 1
   12384    11931    11968 1
   12385    11931    11969 1
   12386    11932    11933 1
   12387    11932    11970 1
   12388    11932    11971 1
   12389    11933    11972 1
   12390    11933    11973 1
   12391    11933    11974 1
   12392    11975    11976 1
   12393    11975    11995 1
   12394    11975    11996 1
   12395    11976    11977 1
   12396    11976    11987 1
   12397    11976    11997 1
   12398    11977    11978 1
   12399    11977    11998 1
   12400    11977    11999 1
   12401    11978    11979 1
   12402    11978    12000 1
   12403    11978    12001 1
   12404    11979    11980 1
   12405    11979    12002 1
   12406    11979    12003 1
   12407    11980    11981 1
   12408    11980    12004 1
   12409    11980    12005 1
   12410    11981    11982 1
   12411    11981    12006 1
   12412    11981    12007 1
   12413    11982    11983 1
   12414    11982    12008 1
   12415    11982    12009 1
   12416    11983    11984 1
   12417    11983    12010 1
   12418    11983    12011 1
   12419    11984    11985 1
   12420    11984    12012 1
   12421    11984    12013 1
   12422    11985    11986 1
   12423    11985    12014 1
   12424    11985    12015 1
   12425    11986    12016 1
   12426    11986    12017 1
   12427    11986    12018 1
   12428    11987    11988 1
   12429    11987    12019 1
   12430    11987    12020 1
   12431    11988    11989 1
   12432    11988    12021 1
   12433    11988    12022 1
   12434    11989    11990 1
   12435    11989    12023 1
   12436    11989    12024 1
   12437    11990    11991 1
   12438    11990    12025 1
   12439    11990    12026 1
   12440    11991    11992 1
   12441    11991    12027 1
   12442    11991    12028 1
   12443    11992    11993 1
   12444    11992    12029 1
   12445    11992    12030 1
   12446    11993    11994 1
   12447    11993    12031 1
   12448    11993    12032 1
   12449    11994    12033 1
   12450    11994    12034 1
   12451    11994    12035 1
   12452    12036    12037 1
   12453    12036    12043 1
   12454    12036    12059 1
   12455    12036    12120 1
   12456    12037    12038 1
   12457    12037    12041 1
   12458    12038    12039 1
   12459    12038    12042 1
   12460    12039    12040 1
   12461    12040    12041 1
   12462    12041    12047 1
   12463    12042    12043 1
   12464    12042    12046 1
   12465    12043    12044 1
   12466    12044    12045 1
   12467    12044    12048 1
   12468    12045    12046 1
   12469    12045    12051 1
   12470    12049    12050 1
   12471    12049    12057 1
   12472    12050    12051 1
   12473    12050    12058 1
   12474    12051    12052 1
   12475    12052    12053 1
   12476    12052    12056 1
   12477    12053    12054 1
   12478    12054    12055 1
   12479    12055    12056 1
   12480    12056    12057 1
   12481    12057    12185 1
   12482    12059    12060 1
   12483    12059    12079 1
   12484    12059    12080 1
   12485    12060    12061 1
   12486    12060    12071 1
   12487    12060    12081 1
   12488    12061    12062 1
   12489    12061    12082 1
   12490    12061    12083 1
   12491    12062    12063 1
   12492    12062    12084 1
   12493    12062    12085 1
   12494    12063    12064 1
   12495    12063    12086 1
   12496    12063    12087 1
   12497    12064    12065 1
   12498    12064    12088 1
   12499    12064    12089 1
   12500    12065    12066 1
   12501    12065    12090 1
   12502    12065    12091 1
   12503    12066    12067 1
   12504    12066    12092 1
   12505    12066    12093 1
   12506    12067    12068 1
   12507    12067    12094 1
   12508    12067    12095 1
   12509    12068    12069 1
   12510    12068    12096 1
   12511    12068    12097 1
   12512    12069    12070 1
   12513    12069    12098 1
   12514    12069    12099 1
   12515    12070    12100 1
   12516    12070    12101 1
   12517    12070    12102 1
   12518    12071    12072 1
   12519    12071    12103 1
   12520    12071    12104 1
   12521    12072    12073 1
   12522    12072    12105 1
   12523    12072    12106 1
   12524    12073    12074 1
   12525    12073    12107 1
   12526    12073    12108 1
   12527    12074    12075 1
   12528    12074    12109 1
   12529    12074    12110 1
   12530    12075    12076 1
   12531    12075    12111 1
   12532    12075    12112 1
   12533    12076    12077 1
   12534    12076    12113 1
   12535    12076    12114 1
   12536    12077    12078 1
   12537    12077    12115 1
   12538    12077    12116 1
   12539    12078    12117 1
   12540    12078    12118 1
   12541    12078    12119 1
   12542    12120    12121 1
   12543    12120    12140 1
   12544    12120    12141 1
   12545    12121    12122 1
   12546    12121    12132 1
   12547    12121    12142 1
   12548    12122    12123 1
   12549    12122    12143 1
   12550    12122    12144 1
   12551    12123    12124 1
   12552    12123    12145 1
   12553    12123    12146 1
   12554    12124    12125 1
   12555    12124    12147 1
   12556    12124    12148 1
   12557    12125    12126 1
   12558    12125    12149 1
   12559    12125    12150 1
   12560    12126    12127 1
   12561    12126    12151 1
   12562    12126    12152 1
   12563    12127    12128 1
   12564    12127    12153 1
   12565    12127    12154 1
   12566    12128    12129 1
   12567    12128    12155 1
   12568    12128    12156 1
   12569    12129    12130 1
   12570    12129    12157 1
   12571    12129    12158 1
   12572    12130    12131 1
   12573    12130    12159 1
   12574    12130    12160 1
   12575    12131    12161 1
   12576    12131    12162 1
   12577    12131    12163 1
   12578    12132    12133 1
   12579    12132    12164 1
   12580    12132    12165 1
   12581    12133    12134 1
   12582    12133    12166 1
   12583    12133    12167 1
   12584    12134    12135 1
   12585    12134    12168 1
   12586    12134    12169 1
   12587    12135    12136 1
   12588    12135    12170 1
   12589    12135    12171 1
   12590    12136    12137 1
   12591    12136    12172 1
   12592    12136    12173 1
   12593    12137    12138 1
   12594    12137    12174 1
   12595    12137    12175 1
   12596    12138    12139 1
   12597    12138    12176 1
   12598    12138    12177 1
   12599    12139    12178 1
   12600    12139    12179 1
   12601    12139    12180 1
   12602    12181    12182 1
   12603    12181    12188 1
   12604    12181    12204 1
   12605    12181    12265 1
   12606    12182    12183 1
   12607    12182    12186 1
   12608    12183    12184 1
   12609    12183    12187 1
   12610    12184    12185 1
   12611    12185    12186 1
   12612    12186    12192 1
   12613    12187    12188 1
   12614    12187    12191 1
   12615    12188    12189 1
   12616    12189    12190 1
   12617    12189    12193 1
   12618    12190    12191 1
   12619    12190    12196 1
   12620    12194    12195 1
   12621    12194    12202 1
   12622    12195    12196 1
   12623    12195    12203 1
   12624    12196    12197 1
   12625    12197    12198 1
   12626    12197    12201 1
   12627    12198    12199 1
   12628    12199    12200 1
   12629    12200    12201 1
   12630    12201    12202 1
   12631    12202    12330 1
   12632    12204    12205 1
   12633    12204    12224 1
   12634    12204    12225 1
   12635    12205    12206 1
   12636    12205    12216 1
   12637    12205    12226 1
   12638    12206    12207 1
   12639    12206    12227 1
   12640    12206    12228 1
   12641    12207    12208 1
   12642    12207    12229 1
   12643    12207    12230 1
   12644    12208    12209 1
   12645    12208    12231 1
   12646    12208    12232 1
   12647    12209    12210 1
   12648    12209    12233 1
   12649    12209    12234 1
   12650    12210    12211 1
   12651    12210    12235 1
   12652    12210    12236 1
   12653    12211    12212 1
   12654    12211    12237 1
   12655    12211    12238 1
   12656    12212    12213 1
   12657    12212    12239 1
   12658    12212    12240 1
   12659    12213    12214 1
   12660    12213    12241 1
   12661    12213    12242 1
   12662    12214    12215 1
   12663    12214    12243 1
   12664    12214    12244 1
   12665    12215    12245 1
   12666    12215    12246 1
   12667    12215    12247 1
   12668    12216    12217 1
   12669    12216    12248 1
   12670    12216    12249 1
   12671    12217    12218 1
   12672    12217    12250 1
   12673    12217    12251 1
   12674    12218    12219 1
   12675    12218    12252 1
   12676    12218    12253 1
   12677    12219    12220 1
   12678    12219    12254 1
   12679    12219    12255 1
   12680    12220    12221 1
   12681    12220    12256 1
   12682    12220    12257 1
   12683    12221    12222 1
   12684    12221    12258 1
   12685    12221    12259 1
   12686    12222    12223 1
   12687    12222    12260 1
   12688    12222    12261 1
   12689    12223    12262 1
   12690    12223    12263 1
   12691    12223    12264 1
   12692    12265    12266 1
   12693    12265    12285 1
   12694    12265    12286 1
   12695    12266    12267 1
   12696    12266    12277 1
   12697    12266    12287 1
   12698    12267    12268 1
   12699    12267    12288 1
   12700    12267    12289 1
   12701    12268    12269 1
   12702    12268    12290 1
   12703    12268    12291 1
   12704    12269    12270 1
   12705    12269    12292 1
   12706    12269    12293 1
   12707    12270    12271 1
   12708    12270    12294 1
   12709    12270    12295 1
   12710    12271    12272 1
   12711    12271    12296 1
   12712    12271    12297 1
   12713    12272    12273 1
   12714    12272    12298 1
   12715    12272    12299 1
   12716    12273    12274 1
   12717    12273    12300 1
   12718    12273    12301 1
   12719    12274    12275 1
   12720    12274    12302 1
   12721    12274    12303 1
   12722    12275    12276 1
   12723    12275    12304 1
   12724    12275    12305 1
   12725    12276    12306 1
   12726    12276    12307 1
   12727    12276    12308 1
   12728    12277    12278 1
   12729    12277    12309 1
   12730    12277    12310 1
   12731    12278    12279 1
   12732    12278    12311 1
   12733    12278    12312 1
   12734    12279    12280 1
   12735    12279    12313 1
   12736    12279    12314 1
   12737    12280    12281 1
   12738    12280    12315 1
   12739    12280    12316 1
   12740    12281    12282 1
   12741    12281    12317 1
   12742    12281    12318 1
   12743    12282    12283 1
   12744    12282    12319 1
   12745    12282    12320 1
   12746    12283    12284 1
   12747    12283    12321 1
   12748    12283    12322 1
   12749    12284    12323 1
   12750    12284    12324 1
   12751    12284    12325 1
   12752    12326    12327 1
   12753    12326    12333 1
   12754    12326    12349 1
   12755    12326    12410 1
   12756    12327    12328 1
   12757    12327    12331 1
   12758    12328    12329 1
   12759    12328    12332 1
   12760    12329    12330 1
   12761    12330    12331 1
   12762    12331    12337 1
   12763    12332    12333 1
   12764    12332    12336 1
   12765    12333    12334 1
   12766    12334    12335 1
   12767    12334    12338 1
   12768    12335    12336 1
   12769    12335    12341 1
   12770    12339    12340 1
   12771    12339    12347 1
   12772    12340    12341 1
   12773    12340    12348 1
   12774    12341    12342 1
   12775    12342    12343 1
   12776    12342    12346 1
   12777    12343    12344 1
   12778    12344    12345 1
   12779    12345    12346 1
   12780    12346    12347 1
   12781    12347    12475 1
   12782    12349    12350 1
   12783    12349    12369 1
   12784    12349    12370 1
   12785    12350    12351 1
   12786    12350    12361 1
   12787    12350    12371 1
   12788    12351    12352 1
   12789    12351    12372 1
   12790    12351    12373 1
   12791    12352    12353 1
   12792    12352    12374 1
   12793    12352    12375 1
   12794    12353    12354 1
   12795    12353    12376 1
   12796    12353    12377 1
   12797    12354    12355 1
   12798    12354    12378 1
   12799    12354    12379 1
   12800    12355    12356 1
   12801    12355    12380 1
   12802    12355    12381 1
   12803    12356    12357 1
   12804    12356    12382 1
   12805    12356    12383 1
   12806    12357    12358 1
   12807    12357    12384 1
   12808    12357    12385 1
   12809    12358    12359 1
   12810    12358    12386 1
   12811    12358    12387 1
   12812    12359    12360 1
   12813    12359    12388 1
   12814    12359    12389 1
   12815    12360    12390 1
   12816    12360    12391 1
   12817    12360    12392 1
   12818    12361    12362 1
   12819    12361    12393 1
   12820    12361    12394 1
   12821    12362    12363 1
   12822    12362    12395 1
   12823    12362    12396 1
   12824    12363    12364 1
   12825    12363    12397 1
   12826    12363    12398 1
   12827    12364    12365 1
   12828    12364    12399 1
   12829    12364    12400 1
   12830    12365    12366 1
   12831    12365    12401 1
   12832    12365    12402 1
   12833    12366    12367 1
   12834    12366    12403 1
   12835    12366    12404 1
   12836    12367    12368 1
   12837    12367    12405 1
   12838    12367    12406 1
   12839    12368    12407 1
   12840    12368    12408 1
   12841    12368    12409 1
   12842    12410    12411 1
   12843    12410    12430 1
   12844    12410    12431 1
   12845    12411    12412 1
   12846    12411    12422 1
   12847    12411    12432 1
   12848    12412    12413 1
   12849    12412    12433 1
   12850    12412    12434 1
   12851    12413    12414 1
   12852    12413    12435 1
   12853    12413    12436 1
   12854    12414    12415 1
   12855    12414    12437 1
   12856    12414    12438 1
   12857    12415    12416 1
   12858    12415    12439 1
   12859    12415    12440 1
   12860    12416    12417 1
   12861    12416    12441 1
   12862    12416    12442 1
   12863    12417    12418 1
   12864    12417    12443 1
   12865    12417    12444 1
   12866    12418    12419 1
   12867    12418    12445 1
   12868    12418    12446 1
   12869    12419    12420 1
   12870    12419    12447 1
   12871    12419    12448 1
   12872    12420    12421 1
   12873    12420    12449 1
   12874    12420    12450 1
   12875    12421    12451 1
   12876    12421    12452 1
   12877    12421    12453 1
   12878    12422    12423 1
   12879    12422    12454 1
   12880    12422    12455 1
   12881    12423    12424 1
   12882    12423    12456 1
   12883    12423    12457 1
   12884    12424    12425 1
   12885    12424    12458 1
   12886    12424    12459 1
   12887    12425    12426 1
   12888    12425    12460 1
   12889    12425    12461 1
   12890    12426    12427 1
   12891    12426    12462 1
   12892    12426    12463 1
   12893    12427    12428 1
   12894    12427    12464 1
   12895    12427    12465 1
   12896    12428    12429 1
   12897    12428    12466 1
   12898    12428    12467 1
   12899    12429    12468 1
   12900    12429    12469 1
   12901    12429    12470 1
   12902    12471    12472 1
   12903    12471    12478 1
   12904    12471    12494 1
   12905    12471    12555 1
   12906    12472    12473 1
   12907    12472    12476 1
   12908    12473    12474 1
   12909    12473    12477 1
   12910    12474    12475 1
   12911    12475    12476 1
   12912    12476    12482 1
   12913    12477    12478 1
   12914    12477    12481 1
   12915    12478    12479 1
   12916    12479    12480 1
   12917    12479    12483 1
   12918    12480    12481 1
   12919    12480    12486 1
   12920    12484    12485 1
   12921    12484    12492 1
   12922    12485    12486 1
   12923    12485    12493 1
   12924    12486    12487 1
   12925    12487    12488 1
   12926    12487    12491 1
   12927    12488    12489 1
   12928    12489    12490 1
   12929    12490    12491 1
   12930    12491    12492 1
   12931    12492    12620 1
   12932    12494    12495 1
   12933    12494    12514 1
   12934    12494    12515 1
   12935    12495    12496 1
   12936    12495    12506 1
   12937    12495    12516 1
   12938    12496    12497 1
   12939    12496    12517 1
   12940    12496    12518 1
   12941    12497    12498 1
   12942    12497    12519 1
   12943    12497    12520 1
   12944    12498    12499 1
   12945    12498    12521 1
   12946    12498    12522 1
   12947    12499    12500 1
   12948    12499    12523 1
   12949    12499    12524 1
   12950    12500    12501 1
   12951    12500    12525 1
   12952    12500    12526 1
   12953    12501    12502 1
   12954    12501    12527 1
   12955    12501    12528 1
   12956    12502    12503 1
   12957    12502    12529 1
   12958    12502    12530 1
   12959    12503    12504 1
   12960    12503    12531 1
   12961    12503    12532 1
   12962    12504    12505 1
   12963    12504    12533 1
   12964    12504    12534 1
   12965    12505    12535 1
   12966    12505    12536 1
   12967    12505    12537 1
   12968    12506    12507 1
   12969    12506    12538 1
   12970    12506    12539 1
   12971    12507    12508 1
   12972    12507    12540 1
   12973    12507    12541 1
   12974    12508    12509 1
   12975    12508    12542 1
   12976    12508    12543 1
   12977    12509    12510 1
   12978    12509    12544 1
   12979    12509    12545 1
   12980    12510    12511 1
   12981    12510    12546 1
   12982    12510    12547 1
   12983    12511    12512 1
   12984    12511    12548 1
   12985    12511    12549 1
   12986    12512    12513 1
   12987    12512    12550 1
   12988    12512    12551 1
   12989    12513    12552 1
   12990    12513    12553 1
   12991    12513    12554 1
   12992    12555    12556 1
   12993    12555    12575 1
   12994    12555    12576 1
   12995    12556    12557 1
   12996    12556    12567 1
   12997    12556    12577 1
   12998    12557    12558 1
   12999    12557    12578 1
   13000    12557    12579 1
   13001    12558    12559 1
   13002    12558    12580 1
   13003    12558    12581 1
   13004    12559    12560 1
   13005    12559    12582 1
   13006    12559    12583 1
   13007    12560    12561 1
   13008    12560    12584 1
   13009    12560    12585 1
   13010    12561    12562 1
   13011    12561    12586 1
   13012    12561    12587 1
   13013    12562    12563 1
   13014    12562    12588 1
   13015    12562    12589 1
   13016    12563    12564 1
   13017    12563    12590 1
   13018    12563    12591 1
   13019    12564    12565 1
   13020    12564    12592 1
   13021    12564    12593 1
   13022    12565    12566 1
   13023    12565    12594 1
   13024    12565    12595 1
   13025    12566    12596 1
   13026    12566    12597 1
   13027    12566    12598 1
   13028    12567    12568 1
   13029    12567    12599 1
   13030    12567    12600 1
   13031    12568    12569 1
   13032    12568    12601 1
   13033    12568    12602 1
   13034    12569    12570 1
   13035    12569    12603 1
   13036    12569    12604 1
   13037    12570    12571 1
   13038    12570    12605 1
   13039    12570    12606 1
   13040    12571    12572 1
   13041    12571    12607 1
   13042    12571    12608 1
   13043    12572    12573 1
   13044    12572    12609 1
   13045    12572    12610 1
   13046    12573    12574 1
   13047    12573    12611 1
   13048    12573    12612 1
   13049    12574    12613 1
   13050    12574    12614 1
   13051    12574    12615 1
   13052    12616    12617 1
   13053    12616    12623 1
   13054    12616    12639 1
   13055    12616    12700 1
   13056    12617    12618 1
   13057    12617    12621 1
   13058    12618    12619 1
   13059    12618    12622 1
   13060    12619    12620 1
   13061    12620    12621 1
   13062    12621    12627 1
   13063    12622    12623 1
   13064    12622    12626 1
   13065    12623    12624 1
   13066    12624    12625 1
   13067    12624    12628 1
   13068    12625    12626 1
   13069    12625    12631 1
   13070    12629    12630 1
   13071    12629    12637 1
   13072    12630    12631 1
   13073    12630    12638 1
   13074    12631    12632 1
   13075    12632    12633 1
   13076    12632    12636 1
   13077    12633    12634 1
   13078    12634    12635 1
   13079    12635    12636 1
   13080    12636    12637 1
   13081    12637    12765 1
   13082    12639    12640 1
   13083    12639    12659 1
   13084    12639    12660 1
   13085    12640    12641 1
   13086    12640    12651 1
   13087    12640    12661 1
   13088    12641    12642 1
   13089    12641    12662 1
   13090    12641    12663 1
   13091    12642    12643 1
   13092    12642    12664 1
   13093    12642    12665 1
   13094    12643    12644 1
   13095    12643    12666 1
   13096    12643    12667 1
   13097    12644    12645 1
   13098    12644    12668 1
   13099    12644    12669 1
   13100    12645    12646 1
   13101    12645    12670 1
   13102    12645    12671 1
   13103    12646    12647 1
   13104    12646    12672 1
   13105    12646    12673 1
   13106    12647    12648 1
   13107    12647    12674 1
   13108    12647    12675 1
   13109    12648    12649 1
   13110    12648    12676 1
   13111    12648    12677 1
   13112    12649    12650 1
   13113    12649    12678 1
   13114    12649    12679 1
   13115    12650    12680 1
   13116    12650    12681 1
   13117    12650    12682 1
   13118    12651    12652 1
   13119    12651    12683 1
   13120    12651    12684 1
   13121    12652    12653 1
   13122    12652    12685 1
   13123    12652    12686 1
   13124    12653    12654 1
   13125    12653    12687 1
   13126    12653    12688 1
   13127    12654    12655 1
   13128    12654    12689 1
   13129    12654    12690 1
   13130    12655    12656 1
   13131    12655    12691 1
   13132    12655    12692 1
   13133    12656    12657 1
   13134    12656    12693 1
   13135    12656    12694 1
   13136    12657    12658 1
   13137    12657    12695 1
   13138    12657    12696 1
   13139    12658    12697 1
   13140    12658    12698 1
   13141    12658    12699 1
   13142    12700    12701 1
   13143    12700    12720 1
   13144    12700    12721 1
   13145    12701    12702 1
   13146    12701    12712 1
   13147    12701    12722 1
   13148    12702    12703 1
   13149    12702    12723 1
   13150    12702    12724 1
   13151    12703    12704 1
   13152    12703    12725 1
   13153    12703    12726 1
   13154    12704    12705 1
   13155    12704    12727 1
   13156    12704    12728 1
   13157    12705    12706 1
   13158    12705    12729 1
   13159    12705    12730 1
   13160    12706    12707 1
   13161    12706    12731 1
   13162    12706    12732 1
   13163    12707    12708 1
   13164    12707    12733 1
   13165    12707    12734 1
   13166    12708    12709 1
   13167    12708    12735 1
   13168    12708    12736 1
   13169    12709    12710 1
   13170    12709    12737 1
   13171    12709    12738 1
   13172    12710    12711 1
   13173    12710    12739 1
   13174    12710    12740 1
   13175    12711    12741 1
   13176    12711    12742 1
   13177    12711    12743 1
   13178    12712    12713 1
   13179    12712    12744 1
   13180    12712    12745 1
   13181    12713    12714 1
   13182    12713    12746 1
   13183    12713    12747 1
   13184    12714    12715 1
   13185    12714    12748 1
   13186    12714    12749 1
   13187    12715    12716 1
   13188    12715    12750 1
   13189    12715    12751 1
   13190    12716    12717 1
   13191    12716    12752 1
   13192    12716    12753 1
   13193    12717    12718 1
   13194    12717    12754 1
   13195    12717    12755 1
   13196    12718    12719 1
   13197    12718    12756 1
   13198    12718    12757 1
   13199    12719    12758 1
   13200    12719    12759 1
   13201    12719    12760 1
   13202    12761    12762 1
   13203    12761    12768 1
   13204    12761    12784 1
   13205    12761    12845 1
   13206    12762    12763 1
   13207    12762    12766 1
   13208    12763    12764 1
   13209    12763    12767 1
   13210    12764    12765 1
   13211    12765    12766 1
   13212    12766    12772 1
   13213    12767    12768 1
   13214    12767    12771 1
   13215    12768    12769 1
   13216    12769    12770 1
   13217    12769    12773 1
   13218    12770    12771 1
   13219    12770    12776 1
   13220    12774    12775 1
   13221    12774    12782 1
   13222    12775    12776 1
   13223    12775    12783 1
   13224    12776    12777 1
   13225    12777    12778 1
   13226    12777    12781 1
   13227    12778    12779 1
   13228    12779    12780 1
   13229    12780    12781 1
   13230    12781    12782 1
   13231    12782    12910 1
   13232    12784    12785 1
   13233    12784    12804 1
   13234    12784    12805 1
   13235    12785    12786 1
   13236    12785    12796 1
   13237    12785    12806 1
   13238    12786    12787 1
   13239    12786    12807 1
   13240    12786    12808 1
   13241    12787    12788 1
   13242    12787    12809 1
   13243    12787    12810 1
   13244    12788    12789 1
   13245    12788    12811 1
   13246    12788    12812 1
   13247    12789    12790 1
   13248    12789    12813 1
   13249    12789    12814 1
   13250    12790    12791 1
   13251    12790    12815 1
   13252    12790    12816 1
   13253    12791    12792 1
   13254    12791    12817 1
   13255    12791    12818 1
   13256    12792    12793 1
   13257    12792    12819 1
   13258    12792    12820 1
   13259    12793    12794 1
   13260    12793    12821 1
   13261    12793    12822 1
   13262    12794    12795 1
   13263    12794    12823 1
   13264    12794    12824 1
   13265    12795    12825 1
   13266    12795    12826 1
   13267    12795    12827 1
   13268    12796    12797 1
   13269    12796    12828 1
   13270    12796    12829 1
   13271    12797    12798 1
   13272    12797    12830 1
   13273    12797    12831 1
   13274    12798    12799 1
   13275    12798    12832 1
   13276    12798    12833 1
   13277    12799    12800 1
   13278    12799    12834 1
   13279    12799    12835 1
   13280    12800    12801 1
   13281    12800    12836 1
   13282    12800    12837 1
   13283    12801    12802 1
   13284    12801    12838 1
   13285    12801    12839 1
   13286    12802    12803 1
   13287    12802    12840 1
   13288    12802    12841 1
   13289    12803    12842 1
   13290    12803    12843 1
   13291    12803    12844 1
   13292    12845    12846 1
   13293    12845    12865 1
   13294    12845    12866 1
   13295    12846    12847 1
   13296    12846    12857 1
   13297    12846    12867 1
   13298    12847    12848 1
   13299    12847    12868 1
   13300    12847    12869 1
   13301    12848    12849 1
   13302    12848    12870 1
   13303    12848    12871 1
   13304    12849    12850 1
   13305    12849    12872 1
   13306    12849    12873 1
   13307    12850    12851 1
   13308    12850    12874 1
   13309    12850    12875 1
   13310    12851    12852 1
   13311    12851    12876 1
   13312    12851    12877 1
   13313    12852    12853 1
   13314    12852    12878 1
   13315    12852    12879 1
   13316    12853    12854 1
   13317    12853    12880 1
   13318    12853    12881 1
   13319    12854    12855 1
   13320    12854    12882 1
   13321    12854    12883 1
   13322    12855    12856 1
   13323    12855    12884 1
   13324    12855    12885 1
   13325    12856    12886 1
   13326    12856    12887 1
   13327    12856    12888 1
   13328    12857    12858 1
   13329    12857    12889 1
   13330    12857    12890 1
   13331    12858    12859 1
   13332    12858    12891 1
   13333    12858    12892 1
   13334    12859    12860 1
   13335    12859    12893 1
   13336    12859    12894 1
   13337    12860    12861 1
   13338    12860    12895 1
   13339    12860    12896 1
   13340    12861    12862 1
   13341    12861    12897 1
   13342    12861    12898 1
   13343    12862    12863 1
   13344    12862    12899 1
   13345    12862    12900 1
   13346    12863    12864 1
   13347    12863    12901 1
   13348    12863    12902 1
   13349    12864    12903 1
   13350    12864    12904 1
   13351    12864    12905 1
   13352    12906    12907 1
   13353    12906    12913 1
   13354    12906    12929 1
   13355    12906    12990 1
   13356    12907    12908 1
   13357    12907    12911 1
   13358    12908    12909 1
   13359    12908    12912 1
   13360    12909    12910 1
   13361    12910    12911 1
   13362    12911    12917 1
   13363    12912    12913 1
   13364    12912    12916 1
   13365    12913    12914 1
   13366    12914    12915 1
   13367    12914    12918 1
   13368    12915    12916 1
   13369    12915    12921 1
   13370    12919    12920 1
   13371    12919    12927 1
   13372    12920    12921 1
   13373    12920    12928 1
   13374    12921    12922 1
   13375    12922    12923 1
   13376    12922    12926 1
   13377    12923    12924 1
   13378    12924    12925 1
   13379    12925    12926 1
   13380    12926    12927 1
   13381    12927    13055 1
   13382    12929    12930 1
   13383    12929    12949 1
   13384    12929    12950 1
   13385    12930    12931 1
   13386    12930    12941 1
   13387    12930    12951 1
   13388    12931    12932 1
   13389    12931    12952 1
   13390    12931    12953 1
   13391    12932    12933 1
   13392    12932    12954 1
   13393    12932    12955 1
   13394    12933    12934 1
   13395    12933    12956 1
   13396    12933    12957 1
   13397    12934    12935 1
   13398    12934    12958 1
   13399    12934    12959 1
   13400    12935    12936 1
   13401    12935    12960 1
   13402    12935    12961 1
   13403    12936    12937 1
   13404    12936    12962 1
   13405    12936    12963 1
   13406    12937    12938 1
   13407    12937    12964 1
   13408    12937    12965 1
   13409    12938    12939 1
   13410    12938    12966 1
   13411    12938    12967 1
   13412    12939    12940 1
   13413    12939    12968 1
   13414    12939    12969 1
   13415    12940    12970 1
   13416    12940    12971 1
   13417    12940    12972 1
   13418    12941    12942 1
   13419    12941    12973 1
   13420    12941    12974 1
   13421    12942    12943 1
   13422    12942    12975 1
   13423    12942    12976 1
   13424    12943    12944 1
   13425    12943    12977 1
   13426    12943    12978 1
   13427    12944    12945 1
   13428    12944    12979 1
   13429    12944    12980 1
   13430    12945    12946 1
   13431    12945    12981 1
   13432    12945    12982 1
   13433    12946    12947 1
   13434    12946    12983 1
   13435    12946    12984 1
   13436    12947    12948 1
   13437    12947    12985 1
   13438    12947    12986 1
   13439    12948    12987 1
   13440    12948    12988 1
   13441    12948    12989 1
   13442    12990    12991 1
   13443    12990    13010 1
   13444    12990    13011 1
   13445    12991    12992 1
   13446    12991    13002 1
   13447    12991    13012 1
   13448    12992    12993 1
   13449    12992    13013 1
   13450    12992    13014 1
   13451    12993    12994 1
   13452    12993    13015 1
   13453    12993    13016 1
   13454    12994    12995 1
   13455    12994    13017 1
   13456    12994    13018 1
   13457    12995    12996 1
   13458    12995    13019 1
   13459    12995    13020 1
   13460    12996    12997 1
   13461    12996    13021 1
   13462    12996    13022 1
   13463    12997    12998 1
   13464    12997    13023 1
   13465    12997    13024 1
   13466    12998    12999 1
   13467    12998    13025 1
   13468    12998    13026 1
   13469    12999    13000 1
   13470    12999    13027 1
   13471    12999    13028 1
   13472    13000    13001 1
   13473    13000    13029 1
   13474    13000    13030 1
   13475    13001    13031 1
   13476    13001    13032 1
   13477    13001    13033 1
   13478    13002    13003 1
   13479    13002    13034 1
   13480    13002    13035 1
   13481    13003    13004 1
   13482    13003    13036 1
   13483    13003    13037 1
   13484    13004    13005 1
   13485    13004    13038 1
   13486    13004    13039 1
   13487    13005    13006 1
   13488    13005    13040 1
   13489    13005    13041 1
   13490    13006    13007 1
   13491    13006    13042 1
   13492    13006    13043 1
   13493    13007    13008 1
   13494    13007    13044 1
   13495    13007    13045 1
   13496    13008    13009 1
   13497    13008    13046 1
   13498    13008    13047 1
   13499    13009    13048 1
   13500    13009    13049 1
   13501    13009    13050 1
   13502    13051    13052 1
   13503    13051    13058 1
   13504    13051    13074 1
   13505    13051    13135 1
   13506    13052    13053 1
   13507    13052    13056 1
   13508    13053    13054 1
   13509    13053    13057 1
   13510    13054    13055 1
   13511    13055    13056 1
   13512    13056    13062 1
   13513    13057    13058 1
   13514    13057    13061 1
   13515    13058    13059 1
   13516    13059    13060 1
   13517    13059    13063 1
   13518    13060    13061 1
   13519    13060    13066 1
   13520    13064    13065 1
   13521    13064    13072 1
   13522    13065    13066 1
   13523    13065    13073 1
   13524    13066    13067 1
   13525    13067    13068 1
   13526    13067    13071 1
   13527    13068    13069 1
   13528    13069    13070 1
   13529    13070    13071 1
   13530    13071    13072 1
   13531    13072    13200 1
   13532    13074    13075 1
   13533    13074    13094 1
   13534    13074    13095 1
   13535    13075    13076 1
   13536    13075    13086 1
   13537    13075    13096 1
   13538    13076    13077 1
   13539    13076    13097 1
   13540    13076    13098 1
   13541    13077    13078 1
   13542    13077    13099 1
   13543    13077    13100 1
   13544    13078    13079 1
   13545    13078    13101 1
   13546    13078    13102 1
   13547    13079    13080 1
   13548    13079    13103 1
   13549    13079    13104 1
   13550    13080    13081 1
   13551    13080    13105 1
   13552    13080    13106 1
   13553    13081    13082 1
   13554    13081    13107 1
   13555    13081    13108 1
   13556    13082    13083 1
   13557    13082    13109 1
   13558    13082    13110 1
   13559    13083    13084 1
   13560    13083    13111 1
   13561    13083    13112 1
   13562    13084    13085 1
   13563    13084    13113 1
   13564    13084    13114 1
   13565    13085    13115 1
   13566    13085    13116 1
   13567    13085    13117 1
   13568    13086    13087 1
   13569    13086    13118 1
   13570    13086    13119 1
   13571    13087    13088 1
   13572    13087    13120 1
   13573    13087    13121 1
   13574    13088    13089 1
   13575    13088    13122 1
   13576    13088    13123 1
   13577    13089    13090 1
   13578    13089    13124 1
   13579    13089    13125 1
   13580    13090    13091 1
   13581    13090    13126 1
   13582    13090    13127 1
   13583    13091    13092 1
   13584    13091    13128 1
   13585    13091    13129 1
   13586    13092    13093 1
   13587    13092    13130 1
   13588    13092    13131 1
   13589    13093    13132 1
   13590    13093    13133 1
   13591    13093    13134 1
   13592    13135    13136 1
   13593    13135    13155 1
   13594    13135    13156 1
   13595    13136    13137 1
   13596    13136    13147 1
   13597    13136    13157 1
   13598    13137    13138 1
   13599    13137    13158 1
   13600    13137    13159 1
   13601    13138    13139 1
   13602    13138    13160 1
   13603    13138    13161 1
   13604    13139    13140 1
   13605    13139    13162 1
   13606    13139    13163 1
   13607    13140    13141 1
   13608    13140    13164 1
   13609    13140    13165 1
   13610    13141    13142 1
   13611    13141    13166 1
   13612    13141    13167 1
   13613    13142    13143 1
   13614    13142    13168 1
   13615    13142    13169 1
   13616    13143    13144 1
   13617    13143    13170 1
   13618    13143    13171 1
   13619    13144    13145 1
   13620    13144    13172 1
   13621    13144    13173 1
   13622    13145    13146 1
   13623    13145    13174 1
   13624    13145    13175 1
   13625    13146    13176 1
   13626    13146    13177 1
   13627    13146    13178 1
   13628    13147    13148 1
   13629    13147    13179 1
   13630    13147    13180 1
   13631    13148    13149 1
   13632    13148    13181 1
   13633    13148    13182 1
   13634    13149    13150 1
   13635    13149    13183 1
   13636    13149    13184 1
   13637    13150    13151 1
   13638    13150    13185 1
   13639    13150    13186 1
   13640    13151    13152 1
   13641    13151    13187 1
   13642    13151    13188 1
   13643    13152    13153 1
   13644    13152    13189 1
   13645    13152    13190 1
   13646    13153    13154 1
   13647    13153    13191 1
   13648    13153    13192 1
   13649    13154    13193 1
   13650    13154    13194 1
   13651    13154    13195 1
   13652    13196    13197 1
   13653    13196    13203 1
   13654    13196    13219 1
   13655    13196    13280 1
   13656    13197    13198 1
   13657    13197    13201 1
   13658    13198    13199 1
   13659    13198    13202 1
   13660    13199    13200 1
   13661    13200    13201 1
   13662    13201    13207 1
   13663    13202    13203 1
   13664    13202    13206 1
   13665    13203    13204 1
   13666    13204    13205 1
   13667    13204    13208 1
   13668    13205    13206 1
   13669    13205    13211 1
   13670    13209    13210 1
   13671    13209    13217 1
   13672    13210    13211 1
   13673    13210    13218 1
   13674    13211    13212 1
   13675    13212    13213 1
   13676    13212    13216 1
   13677    13213    13214 1
   13678    13214    13215 1
   13679    13215    13216 1
   13680    13216    13217 1
   13681    13217    13345 1
   13682    13219    13220 1
   13683    13219    13239 1
   13684    13219    13240 1
   13685    13220    13221 1
   13686    13220    13231 1
   13687    13220    13241 1
   13688    13221    13222 1
   13689    13221    13242 1
   13690    13221    13243 1
   13691    13222    13223 1
   13692    13222    13244 1
   13693    13222    13245 1
   13694    13223    13224 1
   13695    13223    13246 1
   13696    13223    13247 1
   13697    13224    13225 1
   13698    13224    13248 1
   13699    13224    13249 1
   13700    13225    13226 1
   13701    13225    13250 1
   13702    13225    13251 1
   13703    13226    13227 1
   13704    13226    13252 1
   13705    13226    13253 1
   13706    13227    13228 1
   13707    13227    13254 1
   13708    13227    13255 1
   13709    13228    13229 1
   13710    13228    13256 1
   13711    13228    13257 1
   13712    13229    13230 1
   13713    13229    13258 1
   13714    13229    13259 1
   13715    13230    13260 1
   13716    13230    13261 1
   13717    13230    13262 1
   13718    13231    13232 1
   13719    13231    13263 1
   13720    13231    13264 1
   13721    13232    13233 1
   13722    13232    13265 1
   13723    13232    13266 1
   13724    13233    13234 1
   13725    13233    13267 1
   13726    13233    13268 1
   13727    13234    13235 1
   13728    13234    13269 1
   13729    13234    13270 1
   13730    13235    13236 1
   13731    13235    13271 1
   13732    13235    13272 1
   13733    13236    13237 1
   13734    13236    13273 1
   13735    13236    13274 1
   13736    13237    13238 1
   13737    13237    13275 1
   13738    13237    13276 1
   13739    13238    13277 1
   13740    13238    13278 1
   13741    13238    13279 1
   13742    13280    13281 1
   13743    13280    13300 1
   13744    13280    13301 1
   13745    13281    13282 1
   13746    13281    13292 1
   13747    13281    13302 1
   13748    13282    13283 1
   13749    13282    13303 1
   13750    13282    13304 1
   13751    13283    13284 1
   13752    13283    13305 1
   13753    13283    13306 1
   13754    13284    13285 1
   13755    13284    13307 1
   13756    13284    13308 1
   13757    13285    13286 1
   13758    13285    13309 1
   13759    13285    13310 1
   13760    13286    13287 1
   13761    13286    13311 1
   13762    13286    13312 1
   13763    13287    13288 1
   13764    13287    13313 1
   13765    13287    13314 1
   13766    13288    13289 1
   13767    13288    13315 1
   13768    13288    13316 1
   13769    13289    13290 1
   13770    13289    13317 1
   13771    13289    13318 1
   13772    13290    13291 1
   13773    13290    13319 1
   13774    13290    13320 1
   13775    13291    13321 1
   13776    13291    13322 1
   13777    13291    13323 1
   13778    13292    13293 1
   13779    13292    13324 1
   13780    13292    13325 1
   13781    13293    13294 1
   13782    13293    13326 1
   13783    13293    13327 1
   13784    13294    13295 1
   13785    13294    13328 1
   13786    13294    13329 1
   13787    13295    13296 1
   13788    13295    13330 1
   13789    13295    13331 1
   13790    13296    13297 1
   13791    13296    13332 1
   13792    13296    13333 1
   13793    13297    13298 1
   13794    13297    13334 1
   13795    13297    13335 1
   13796    13298    13299 1
   13797    13298    13336 1
   13798    13298    13337 1
   13799    13299    13338 1
   13800    13299    13339 1
   13801    13299    13340 1
   13802    13341    13342 1
   13803    13341    13348 1
   13804    13341    13364 1
   13805    13341    13425 1
   13806    13342    13343 1
   13807    13342    13346 1
   13808    13343    13344 1
   13809    13343    13347 1
   13810    13344    13345 1
   13811    13345    13346 1
   13812    13346    13352 1
   13813    13347    13348 1
   13814    13347    13351 1
   13815    13348    13349 1
   13816    13349    13350 1
   13817    13349    13353 1
   13818    13350    13351 1
   13819    13350    13356 1
   13820    13354    13355 1
   13821    13354    13362 1
   13822    13355    13356 1
   13823    13355    13363 1
   13824    13356    13357 1
   13825    13357    13358 1
   13826    13357    13361 1
   13827    13358    13359 1
   13828    13359    13360 1
   13829    13360    13361 1
   13830    13361    13362 1
   13831    13362    13490 1
   13832    13364    13365 1
   13833    13364    13384 1
   13834    13364    13385 1
   13835    13365    13366 1
   13836    13365    13376 1
   13837    13365    13386 1
   13838    13366    13367 1
   13839    13366    13387 1
   13840    13366    13388 1
   13841    13367    13368 1
   13842    13367    13389 1
   13843    13367    13390 1
   13844    13368    13369 1
   13845    13368    13391 1
   13846    13368    13392 1
   13847    13369    13370 1
   13848    13369    13393 1
   13849    13369    13394 1
   13850    13370    13371 1
   13851    13370    13395 1
   13852    13370    13396 1
   13853    13371    13372 1
   13854    13371    13397 1
   13855    13371    13398 1
   13856    13372    13373 1
   13857    13372    13399 1
   13858    13372    13400 1
   13859    13373    13374 1
   13860    13373    13401 1
   13861    13373    13402 1
   13862    13374    13375 1
   13863    13374    13403 1
   13864    13374    13404 1
   13865    13375    13405 1
   13866    13375    13406 1
   13867    13375    13407 1
   13868    13376    13377 1
   13869    13376    13408 1
   13870    13376    13409 1
   13871    13377    13378 1
   13872    13377    13410 1
   13873    13377    13411 1
   13874    13378    13379 1
   13875    13378    13412 1
   13876    13378    13413 1
   13877    13379    13380 1
   13878    13379    13414 1
   13879    13379    13415 1
   13880    13380    13381 1
   13881    13380    13416 1
   13882    13380    13417 1
   13883    13381    13382 1
   13884    13381    13418 1
   13885    13381    13419 1
   13886    13382    13383 1
   13887    13382    13420 1
   13888    13382    13421 1
   13889    13383    13422 1
   13890    13383    13423 1
   13891    13383    13424 1
   13892    13425    13426 1
   13893    13425    13445 1
   13894    13425    13446 1
   13895    13426    13427 1
   13896    13426    13437 1
   13897    13426    13447 1
   13898    13427    13428 1
   13899    13427    13448 1
   13900    13427    13449 1
   13901    13428    13429 1
   13902    13428    13450 1
   13903    13428    13451 1
   13904    13429    13430 1
   13905    13429    13452 1
   13906    13429    13453 1
   13907    13430    13431 1
   13908    13430    13454 1
   13909    13430    13455 1
   13910    13431    13432 1
   13911    13431    13456 1
   13912    13431    13457 1
   13913    13432    13433 1
   13914    13432    13458 1
   13915    13432    13459 1
   13916    13433    13434 1
   13917    13433    13460 1
   13918    13433    13461 1
   13919    13434    13435 1
   13920    13434    13462 1
   13921    13434    13463 1
   13922    13435    13436 1
   13923    13435    13464 1
   13924    13435    13465 1
   13925    13436    13466 1
   13926    13436    13467 1
   13927    13436    13468 1
   13928    13437    13438 1
   13929    13437    13469 1
   13930    13437    13470 1
   13931    13438    13439 1
   13932    13438    13471 1
   13933    13438    13472 1
   13934    13439    13440 1
   13935    13439    13473 1
   13936    13439    13474 1
   13937    13440    13441 1
   13938    13440    13475 1
   13939    13440    13476 1
   13940    13441    13442 1
   13941    13441    13477 1
   13942    13441    13478 1
   13943    13442    13443 1
   13944    13442    13479 1
   13945    13442    13480 1
   13946    13443    13444 1
   13947    13443    13481 1
   13948    13443    13482 1
   13949    13444    13483 1
   13950    13444    13484 1
   13951    13444    13485 1
   13952    13486    13487 1
   13953    13486    13493 1
   13954    13486    13509 1
   13955    13486    13570 1
   13956    13487    13488 1
   13957    13487    13491 1
   13958    13488    13489 1
   13959    13488    13492 1
   13960    13489    13490 1
   13961    13490    13491 1
   13962    13491    13497 1
   13963    13492    13493 1
   13964    13492    13496 1
   13965    13493    13494 1
   13966    13494    13495 1
   13967    13494    13498 1
   13968    13495    13496 1
   13969    13495    13501 1
   13970    13499    13500 1
   13971    13499    13507 1
   13972    13500    13501 1
   13973    13500    13508 1
   13974    13501    13502 1
   13975    13502    13503 1
   13976    13502    13506 1
   13977    13503    13504 1
   13978    13504    13505 1
   13979    13505    13506 1
   13980    13506    13507 1
   13981    13507    13635 1
   13982    13509    13510 1
   13983    13509    13529 1
   13984    13509    13530 1
   13985    13510    13511 1
   13986    13510    13521 1
   13987    13510    13531 1
   13988    13511    13512 1
   13989    13511    13532 1
   13990    13511    13533 1
   13991    13512    13513 1
   13992    13512    13534 1
   13993    13512    13535 1
   13994    13513    13514 1
   13995    13513    13536 1
   13996    13513    13537 1
   13997    13514    13515 1
   13998    13514    13538 1
   13999    13514    13539 1
   14000    13515    13516 1
   14001    13515    13540 1
   14002    13515    13541 1
   14003    13516    13517 1
   14004    13516    13542 1
   14005    13516    13543 1
   14006    13517    13518 1
   14007    13517    13544 1
   14008    13517    13545 1
   14009    13518    13519 1
   14010    13518    13546 1
   14011    13518    13547 1
   14012    13519    13520 1
   14013    13519    13548 1
   14014    13519    13549 1
   14015    13520    13550 1
   14016    13520    13551 1
   14017    13520    13552 1
   14018    13521    13522 1
   14019    13521    13553 1
   14020    13521    13554 1
   14021    13522    13523 1
   14022    13522    13555 1
   14023    13522    13556 1
   14024    13523    13524 1
   14025    13523    13557 1
   14026    13523    13558 1
   14027    13524    13525 1
   14028    13524    13559 1
   14029    13524    13560 1
   14030    13525    13526 1
   14031    13525    13561 1
   14032    13525    13562 1
   14033    13526    13527 1
   14034    13526    13563 1
   14035    13526    13564 1
   14036    13527    13528 1
   14037    13527    13565 1
   14038    13527    13566 1
   14039    13528    13567 1
   14040    13528    13568 1
   14041    13528    13569 1
   14042    13570    13571 1
   14043    13570    13590 1
   14044    13570    13591 1
   14045    13571    13572 1
   14046    13571    13582 1
   14047    13571    13592 1
   14048    13572    13573 1
   14049    13572    13593 1
   14050    13572    13594 1
   14051    13573    13574 1
   14052    13573    13595 1
   14053    13573    13596 1
   14054    13574    13575 1
   14055    13574    13597 1
   14056    13574    13598 1
   14057    13575    13576 1
   14058    13575    13599 1
   14059    13575    13600 1
   14060    13576    13577 1
   14061    13576    13601 1
   14062    13576    13602 1
   14063    13577    13578 1
   14064    13577    13603 1
   14065    13577    13604 1
   14066    13578    13579 1
   14067    13578    13605 1
   14068    13578    13606 1
   14069    13579    13580 1
   14070    13579    13607 1
   14071    13579    13608 1
   14072    13580    13581 1
   14073    13580    13609 1
   14074    13580    13610 1
   14075    13581    13611 1
   14076    13581    13612 1
   14077    13581    13613 1
   14078    13582    13583 1
   14079    13582    13614 1
   14080    13582    13615 1
   14081    13583    13584 1
   14082    13583    13616 1
   14083    13583    13617 1
   14084    13584    13585 1
   14085    13584    13618 1
   14086    13584    13619 1
   14087    13585    13586 1
   14088    13585    13620 1
   14089    13585    13621 1
   14090    13586    13587 1
   14091    13586    13622 1
   14092    13586    13623 1
   14093    13587    13588 1
   14094    13587    13624 1
   14095    13587    13625 1
   14096    13588    13589 1
   14097    13588    13626 1
   14098    13588    13627 1
   14099    13589    13628 1
   14100    13589    13629 1
   14101    13589    13630 1
   14102    13631    13632 1
   14103    13631    13638 1
   14104    13631    13654 1
   14105    13631    13715 1
   14106    13632    13633 1
   14107    13632    13636 1
   14108    13633    13634 1
   14109    13633    13637 1
   14110    13634    13635 1
   14111    13635    13636 1
   14112    13636    13642 1
   14113    13637    13638 1
   14114    13637    13641 1
   14115    13638    13639 1
   14116    13639    13640 1
   14117    13639    13643 1
   14118    13640    13641 1
   14119    13640    13646 1
   14120    13644    13645 1
   14121    13644    13652 1
   14122    13645    13646 1
   14123    13645    13653 1
   14124    13646    13647 1
   14125    13647    13648 1
   14126    13647    13651 1
   14127    13648    13649 1
   14128    13649    13650 1
   14129    13650    13651 1
   14130    13651    13652 1
   14131    13652    13780 1
   14132    13654    13655 1
   14133    13654    13674 1
   14134    13654    13675 1
   14135    13655    13656 1
   14136    13655    13666 1
   14137    13655    13676 1
   14138    13656    13657 1
   14139    13656    13677 1
   14140    13656    13678 1
   14141    13657    13658 1
   14142    13657    13679 1
   14143    13657    13680 1
   14144    13658    13659 1
   14145    13658    13681 1
   14146    13658    13682 1
   14147    13659    13660 1
   14148    13659    13683 1
   14149    13659    13684 1
   14150    13660    13661 1
   14151    13660    13685 1
   14152    13660    13686 1
   14153    13661    13662 1
   14154    13661    13687 1
   14155    13661    13688 1
   14156    13662    13663 1
   14157    13662    13689 1
   14158    13662    13690 1
   14159    13663    13664 1
   14160    13663    13691 1
   14161    13663    13692 1
   14162    13664    13665 1
   14163    13664    13693 1
   14164    13664    13694 1
   14165    13665    13695 1
   14166    13665    13696 1
   14167    13665    13697 1
   14168    13666    13667 1
   14169    13666    13698 1
   14170    13666    13699 1
   14171    13667    13668 1
   14172    13667    13700 1
   14173    13667    13701 1
   14174    13668    13669 1
   14175    13668    13702 1
   14176    13668    13703 1
   14177    13669    13670 1
   14178    13669    13704 1
   14179    13669    13705 1
   14180    13670    13671 1
   14181    13670    13706 1
   14182    13670    13707 1
   14183    13671    13672 1
   14184    13671    13708 1
   14185    13671    13709 1
   14186    13672    13673 1
   14187    13672    13710 1
   14188    13672    13711 1
   14189    13673    13712 1
   14190    13673    13713 1
   14191    13673    13714 1
   14192    13715    13716 1
   14193    13715    13735 1
   14194    13715    13736 1
   14195    13716    13717 1
   14196    13716    13727 1
   14197    13716    13737 1
   14198    13717    13718 1
   14199    13717    13738 1
   14200    13717    13739 1
   14201    13718    13719 1
   14202    13718    13740 1
   14203    13718    13741 1
   14204    13719    13720 1
   14205    13719    13742 1
   14206    13719    13743 1
   14207    13720    13721 1
   14208    13720    13744 1
   14209    13720    13745 1
   14210    13721    13722 1
   14211    13721    13746 1
   14212    13721    13747 1
   14213    13722    13723 1
   14214    13722    13748 1
   14215    13722    13749 1
   14216    13723    13724 1
   14217    13723    13750 1
   14218    13723    13751 1
   14219    13724    13725 1
   14220    13724    13752 1
   14221    13724    13753 1
   14222    13725    13726 1
   14223    13725    13754 1
   14224    13725    13755 1
   14225    13726    13756 1
   14226    13726    13757 1
   14227    13726    13758 1
   14228    13727    13728 1
   14229    13727    13759 1
   14230    13727    13760 1
   14231    13728    13729 1
   14232    13728    13761 1
   14233    13728    13762 1
   14234    13729    13730 1
   14235    13729    13763 1
   14236    13729    13764 1
   14237    13730    13731 1
   14238    13730    13765 1
   14239    13730    13766 1
   14240    13731    13732 1
   14241    13731    13767 1
   14242    13731    13768 1
   14243    13732    13733 1
   14244    13732    13769 1
   14245    13732    13770 1
   14246    13733    13734 1
   14247    13733    13771 1
   14248    13733    13772 1
   14249    13734    13773 1
   14250    13734    13774 1
   14251    13734    13775 1
   14252    13776    13777 1
   14253    13776    13783 1
   14254    13776    13799 1
   14255    13776    13860 1
   14256    13777    13778 1
   14257    13777    13781 1
   14258    13778    13779 1
   14259    13778    13782 1
   14260    13779    13780 1
   14261    13780    13781 1
   14262    13781    13787 1
   14263    13782    13783 1
   14264    13782    13786 1
   14265    13783    13784 1
   14266    13784    13785 1
   14267    13784    13788 1
   14268    13785    13786 1
   14269    13785    13791 1
   14270    13789    13790 1
   14271    13789    13797 1
   14272    13790    13791 1
   14273    13790    13798 1
   14274    13791    13792 1
   14275    13792    13793 1
   14276    13792    13796 1
   14277    13793    13794 1
   14278    13794    13795 1
   14279    13795    13796 1
   14280    13796    13797 1
   14281    13797    13925 1
   14282    13799    13800 1
   14283    13799    13819 1
   14284    13799    13820 1
   14285    13800    13801 1
   14286    13800    13811 1
   14287    13800    13821 1
   14288    13801    13802 1
   14289    13801    13822 1
   14290    13801    13823 1
   14291    13802    13803 1
   14292    13802    13824 1
   14293    13802    13825 1
   14294    13803    13804 1
   14295    13803    13826 1
   14296    13803    13827 1
   14297    13804    13805 1
   14298    13804    13828 1
   14299    13804    13829 1
   14300    13805    13806 1
   14301    13805    13830 1
   14302    13805    13831 1
   14303    13806    13807 1
   14304    13806    13832 1
   14305    13806    13833 1
   14306    13807    13808 1
   14307    13807    13834 1
   14308    13807    13835 1
   14309    13808    13809 1
   14310    13808    13836 1
   14311    13808    13837 1
   14312    13809    13810 1
   14313    13809    13838 1
   14314    13809    13839 1
   14315    13810    13840 1
   14316    13810    13841 1
   14317    13810    13842 1
   14318    13811    13812 1
   14319    13811    13843 1
   14320    13811    13844 1
   14321    13812    13813 1
   14322    13812    13845 1
   14323    13812    13846 1
   14324    13813    13814 1
   14325    13813    13847 1
   14326    13813    13848 1
   14327    13814    13815 1
   14328    13814    13849 1
   14329    13814    13850 1
   14330    13815    13816 1
   14331    13815    13851 1
   14332    13815    13852 1
   14333    13816    13817 1
   14334    13816    13853 1
   14335    13816    13854 1
   14336    13817    13818 1
   14337    13817    13855 1
   14338    13817    13856 1
   14339    13818    13857 1
   14340    13818    13858 1
   14341    13818    13859 1
   14342    13860    13861 1
   14343    13860    13880 1
   14344    13860    13881 1
   14345    13861    13862 1
   14346    13861    13872 1
   14347    13861    13882 1
   14348    13862    13863 1
   14349    13862    13883 1
   14350    13862    13884 1
   14351    13863    13864 1
   14352    13863    13885 1
   14353    13863    13886 1
   14354    13864    13865 1
   14355    13864    13887 1
   14356    13864    13888 1
   14357    13865    13866 1
   14358    13865    13889 1
   14359    13865    13890 1
   14360    13866    13867 1
   14361    13866    13891 1
   14362    13866    13892 1
   14363    13867    13868 1
   14364    13867    13893 1
   14365    13867    13894 1
   14366    13868    13869 1
   14367    13868    13895 1
   14368    13868    13896 1
   14369    13869    13870 1
   14370    13869    13897 1
   14371    13869    13898 1
   14372    13870    13871 1
   14373    13870    13899 1
   14374    13870    13900 1
   14375    13871    13901 1
   14376    13871    13902 1
   14377    13871    13903 1
   14378    13872    13873 1
   14379    13872    13904 1
   14380    13872    13905 1
   14381    13873    13874 1
   14382    13873    13906 1
   14383    13873    13907 1
   14384    13874    13875 1
   14385    13874    13908 1
   14386    13874    13909 1
   14387    13875    13876 1
   14388    13875    13910 1
   14389    13875    13911 1
   14390    13876    13877 1
   14391    13876    13912 1
   14392    13876    13913 1
   14393    13877    13878 1
   14394    13877    13914 1
   14395    13877    13915 1
   14396    13878    13879 1
   14397    13878    13916 1
   14398    13878    13917 1
   14399    13879    13918 1
   14400    13879    13919 1
   14401    13879    13920 1
   14402    13921    13922 1
   14403    13921    13928 1
   14404    13921    13944 1
   14405    13921    14005 1
   14406    13922    13923 1
   14407    13922    13926 1
   14408    13923    13924 1
   14409    13923    13927 1
   14410    13924    13925 1
   14411    13925    13926 1
   14412    13926    13932 1
   14413    13927    13928 1
   14414    13927    13931 1
   14415    13928    13929 1
   14416    13929    13930 1
   14417    13929    13933 1
   14418    13930    13931 1
   14419    13930    13936 1
   14420    13934    13935 1
   14421    13934    13942 1
   14422    13935    13936 1
   14423    13935    13943 1
   14424    13936    13937 1
   14425    13937    13938 1
   14426    13937    13941 1
   14427    13938    13939 1
   14428    13939    13940 1
   14429    13940    13941 1
   14430    13941    13942 1
   14431    13942    14070 1
   14432    13944    13945 1
   14433    13944    13964 1
   14434    13944    13965 1
   14435    13945    13946 1
   14436    13945    13956 1
   14437    13945    13966 1
   14438    13946    13947 1
   14439    13946    13967 1
   14440    13946    13968 1
   14441    13947    13948 1
   14442    13947    13969 1
   14443    13947    13970 1
   14444    13948    13949 1
   14445    13948    13971 1
   14446    13948    13972 1
   14447    13949    13950 1
   14448    13949    13973 1
   14449    13949    13974 1
   14450    13950    13951 1
   14451    13950    13975 1
   14452    13950    13976 1
   14453    13951    13952 1
   14454    13951    13977 1
   14455    13951    13978 1
   14456    13952    13953 1
   14457    13952    13979 1
   14458    13952    13980 1
   14459    13953    13954 1
   14460    13953    13981 1
   14461    13953    13982 1
   14462    13954    13955 1
   14463    13954    13983 1
   14464    13954    13984 1
   14465    13955    13985 1
   14466    13955    13986 1
   14467    13955    13987 1
   14468    13956    13957 1
   14469    13956    13988 1
   14470    13956    13989 1
   14471    13957    13958 1
   14472    13957    13990 1
   14473    13957    13991 1
   14474    13958    13959 1
   14475    13958    13992 1
   14476    13958    13993 1
   14477    13959    13960 1
   14478    13959    13994 1
   14479    13959    13995 1
   14480    13960    13961 1
   14481    13960    13996 1
   14482    13960    13997 1
   14483    13961    13962 1
   14484    13961    13998 1
   14485    13961    13999 1
   14486    13962    13963 1
   14487    13962    14000 1
   14488    13962    14001 1
   14489    13963    14002 1
   14490    13963    14003 1
   14491    13963    14004 1
   14492    14005    14006 1
   14493    14005    14025 1
   14494    14005    14026 1
   14495    14006    14007 1
   14496    14006    14017 1
   14497    14006    14027 1
   14498    14007    14008 1
   14499    14007    14028 1
   14500    14007    14029 1
   14501    14008    14009 1
   14502    14008    14030 1
   14503    14008    14031 1
   14504    14009    14010 1
   14505    14009    14032 1
   14506    14009    14033 1
   14507    14010    14011 1
   14508    14010    14034 1
   14509    14010    14035 1
   14510    14011    14012 1
   14511    14011    14036 1
   14512    14011    14037 1
   14513    14012    14013 1
   14514    14012    14038 1
   14515    14012    14039 1
   14516    14013    14014 1
   14517    14013    14040 1
   14518    14013    14041 1
   14519    14014    14015 1
   14520    14014    14042 1
   14521    14014    14043 1
   14522    14015    14016 1
   14523    14015    14044 1
   14524    14015    14045 1
   14525    14016    14046 1
   14526    14016    14047 1
   14527    14016    14048 1
   14528    14017    14018 1
   14529    14017    14049 1
   14530    14017    14050 1
   14531    14018    14019 1
   14532    14018    14051 1
   14533    14018    14052 1
   14534    14019    14020 1
   14535    14019    14053 1
   14536    14019    14054 1
   14537    14020    14021 1
   14538    14020    14055 1
   14539    14020    14056 1
   14540    14021    14022 1
   14541    14021    14057 1
   14542    14021    14058 1
   14543    14022    14023 1
   14544    14022    14059 1
   14545    14022    14060 1
   14546    14023    14024 1
   14547    14023    14061 1
   14548    14023    14062 1
   14549    14024    14063 1
   14550    14024    14064 1
   14551    14024    14065 1
   14552    14066    14067 1
   14553    14066    14073 1
   14554    14066    14089 1
   14555    14066    14150 1
   14556    14067    14068 1
   14557    14067    14071 1
   14558    14068    14069 1
   14559    14068    14072 1
   14560    14069    14070 1
   14561    14070    14071 1
   14562    14071    14077 1
   14563    14072    14073 1
   14564    14072    14076 1
   14565    14073    14074 1
   14566    14074    14075 1
   14567    14074    14078 1
   14568    14075    14076 1
   14569    14075    14081 1
   14570    14079    14080 1
   14571    14079    14087 1
   14572    14080    14081 1
   14573    14080    14088 1
   14574    14081    14082 1
   14575    14082    14083 1
   14576    14082    14086 1
   14577    14083    14084 1
   14578    14084    14085 1
   14579    14085    14086 1
   14580    14086    14087 1
   14581    14087    14215 1
   14582    14089    14090 1
   14583    14089    14109 1
   14584    14089    14110 1
   14585    14090    14091 1
   14586    14090    14101 1
   14587    14090    14111 1
   14588    14091    14092 1
   14589    14091    14112 1
   14590    14091    14113 1
   14591    14092    14093 1
   14592    14092    14114 1
   14593    14092    14115 1
   14594    14093    14094 1
   14595    14093    14116 1
   14596    14093    14117 1
   14597    14094    14095 1
   14598    14094    14118 1
   14599    14094    14119 1
   14600    14095    14096 1
   14601    14095    14120 1
   14602    14095    14121 1
   14603    14096    14097 1
   14604    14096    14122 1
   14605    14096    14123 1
   14606    14097    14098 1
   14607    14097    14124 1
   14608    14097    14125 1
   14609    14098    14099 1
   14610    14098    14126 1
   14611    14098    14127 1
   14612    14099    14100 1
   14613    14099    14128 1
   14614    14099    14129 1
   14615    14100    14130 1
   14616    14100    14131 1
   14617    14100    14132 1
   14618    14101    14102 1
   14619    14101    14133 1
   14620    14101    14134 1
   14621    14102    14103 1
   14622    14102    14135 1
   14623    14102    14136 1
   14624    14103    14104 1
   14625    14103    14137 1
   14626    14103    14138 1
   14627    14104    14105 1
   14628    14104    14139 1
   14629    14104    14140 1
   14630    14105    14106 1
   14631    14105    14141 1
   14632    14105    14142 1
   14633    14106    14107 1
   14634    14106    14143 1
   14635    14106    14144 1
   14636    14107    14108 1
   14637    14107    14145 1
   14638    14107    14146 1
   14639    14108    14147 1
   14640    14108    14148 1
   14641    14108    14149 1
   14642    14150    14151 1
   14643    14150    14170 1
   14644    14150    14171 1
   14645    14151    14152 1
   14646    14151    14162 1
   14647    14151    14172 1
   14648    14152    14153 1
   14649    14152    14173 1
   14650    14152    14174 1
   14651    14153    14154 1
   14652    14153    14175 1
   14653    14153    14176 1
   14654    14154    14155 1
   14655    14154    14177 1
   14656    14154    14178 1
   14657    14155    14156 1
   14658    14155    14179 1
   14659    14155    14180 1
   14660    14156    14157 1
   14661    14156    14181 1
   14662    14156    14182 1
   14663    14157    14158 1
   14664    14157    14183 1
   14665    14157    14184 1
   14666    14158    14159 1
   14667    14158    14185 1
   14668    14158    14186 1
   14669    14159    14160 1
   14670    14159    14187 1
   14671    14159    14188 1
   14672    14160    14161 1
   14673    14160    14189 1
   14674    14160    14190 1
   14675    14161    14191 1
   14676    14161    14192 1
   14677    14161    14193 1
   14678    14162    14163 1
   14679    14162    14194 1
   14680    14162    14195 1
   14681    14163    14164 1
   14682    14163    14196 1
   14683    14163    14197 1
   14684    14164    14165 1
   14685    14164    14198 1
   14686    14164    14199 1
   14687    14165    14166 1
   14688    14165    14200 1
   14689    14165    14201 1
   14690    14166    14167 1
   14691    14166    14202 1
   14692    14166    14203 1
   14693    14167    14168 1
   14694    14167    14204 1
   14695    14167    14205 1
   14696    14168    14169 1
   14697    14168    14206 1
   14698    14168    14207 1
   14699    14169    14208 1
   14700    14169    14209 1
   14701    14169    14210 1
   14702    14211    14212 1
   14703    14211    14218 1
   14704    14211    14234 1
   14705    14211    14295 1
   14706    14212    14213 1
   14707    14212    14216 1
   14708    14213    14214 1
   14709    14213    14217 1
   14710    14214    14215 1
   14711    14215    14216 1
   14712    14216    14222 1
   14713    14217    14218 1
   14714    14217    14221 1
   14715    14218    14219 1
   14716    14219    14220 1
   14717    14219    14223 1
   14718    14220    14221 1
   14719    14220    14226 1
   14720    14224    14225 1
   14721    14224    14232 1
   14722    14225    14226 1
   14723    14225    14233 1
   14724    14226    14227 1
   14725    14227    14228 1
   14726    14227    14231 1
   14727    14228    14229 1
   14728    14229    14230 1
   14729    14230    14231 1
   14730    14231    14232 1
   14731    14232    14360 1
   14732    14234    14235 1
   14733    14234    14254 1
   14734    14234    14255 1
   14735    14235    14236 1
   14736    14235    14246 1
   14737    14235    14256 1
   14738    14236    14237 1
   14739    14236    14257 1
   14740    14236    14258 1
   14741    14237    14238 1
   14742    14237    14259 1
   14743    14237    14260 1
   14744    14238    14239 1
   14745    14238    14261 1
   14746    14238    14262 1
   14747    14239    14240 1
   14748    14239    14263 1
   14749    14239    14264 1
   14750    14240    14241 1
   14751    14240    14265 1
   14752    14240    14266 1
   14753    14241    14242 1
   14754    14241    14267 1
   14755    14241    14268 1
   14756    14242    14243 1
   14757    14242    14269 1
   14758    14242    14270 1
   14759    14243    14244 1
   14760    14243    14271 1
   14761    14243    14272 1
   14762    14244    14245 1
   14763    14244    14273 1
   14764    14244    14274 1
   14765    14245    14275 1
   14766    14245    14276 1
   14767    14245    14277 1
   14768    14246    14247 1
   14769    14246    14278 1
   14770    14246    14279 1
   14771    14247    14248 1
   14772    14247    14280 1
   14773    14247    14281 1
   14774    14248    14249 1
   14775    14248    14282 1
   14776    14248    14283 1
   14777    14249    14250 1
   14778    14249    14284 1
   14779    14249    14285 1
   14780    14250    14251 1
   14781    14250    14286 1
   14782    14250    14287 1
   14783    14251    14252 1
   14784    14251    14288 1
   14785    14251    14289 1
   14786    14252    14253 1
   14787    14252    14290 1
   14788    14252    14291 1
   14789    14253    14292 1
   14790    14253    14293 1
   14791    14253    14294 1
   14792    14295    14296 1
   14793    14295    14315 1
   14794    14295    14316 1
   14795    14296    14297 1
   14796    14296    14307 1
   14797    14296    14317 1
   14798    14297    14298 1
   14799    14297    14318 1
   14800    14297    14319 1
   14801    14298    14299 1
   14802    14298    14320 1
   14803    14298    14321 1
   14804    14299    14300 1
   14805    14299    14322 1
   14806    14299    14323 1
   14807    14300    14301 1
   14808    14300    14324 1
   14809    14300    14325 1
   14810    14301    14302 1
   14811    14301    14326 1
   14812    14301    14327 1
   14813    14302    14303 1
   14814    14302    14328 1
   14815    14302    14329 1
   14816    14303    14304 1
   14817    14303    14330 1
   14818    14303    14331 1
   14819    14304    14305 1
   14820    14304    14332 1
   14821    14304    14333 1
   14822    14305    14306 1
   14823    14305    14334 1
   14824    14305    14335 1
   14825    14306    14336 1
   14826    14306    14337 1
   14827    14306    14338 1
   14828    14307    14308 1
   14829    14307    14339 1
   14830    14307    14340 1
   14831    14308    14309 1
   14832    14308    14341 1
   14833    14308    14342 1
   14834    14309    14310 1
   14835    14309    14343 1
   14836    14309    14344 1
   14837    14310    14311 1
   14838    14310    14345 1
   14839    14310    14346 1
   14840    14311    14312 1
   14841    14311    14347 1
   14842    14311    14348 1
   14843    14312    14313 1
   14844    14312    14349 1
   14845    14312    14350 1
   14846    14313    14314 1
   14847    14313    14351 1
   14848    14313    14352 1
   14849    14314    14353 1
   14850    14314    14354 1
   14851    14314    14355 1
   14852    14356    14357 1
   14853    14356    14363 1
   14854    14356    14379 1
   14855    14356    14440 1
   14856    14357    14358 1
   14857    14357    14361 1
   14858    14358    14359 1
   14859    14358    14362 1
   14860    14359    14360 1
   14861    14360    14361 1
   14862    14361    14367 1
   14863    14362    14363 1
   14864    14362    14366 1
   14865    14363    14364 1
   14866    14364    14365 1
   14867    14364    14368 1
   14868    14365    14366 1
   14869    14365    14371 1
   14870    14369    14370 1
   14871    14369    14377 1
   14872    14370    14371 1
   14873    14370    14378 1
   14874    14371    14372 1
   14875    14372    14373 1
   14876    14372    14376 1
   14877    14373    14374 1
   14878    14374    14375 1
   14879    14375    14376 1
   14880    14376    14377 1
   14881    14377    14502 1
   14882    14379    14380 1
   14883    14379    14399 1
   14884    14379    14400 1
   14885    14380    14381 1
   14886    14380    14391 1
   14887    14380    14401 1
   14888    14381    14382 1
   14889    14381    14402 1
   14890    14381    14403 1
   14891    14382    14383 1
   14892    14382    14404 1
   14893    14382    14405 1
   14894    14383    14384 1
   14895    14383    14406 1
   14896    14383    14407 1
   14897    14384    14385 1
   14898    14384    14408 1
   14899    14384    14409 1
   14900    14385    14386 1
   14901    14385    14410 1
   14902    14385    14411 1
   14903    14386    14387 1
   14904    14386    14412 1
   14905    14386    14413 1
   14906    14387    14388 1
   14907    14387    14414 1
   14908    14387    14415 1
   14909    14388    14389 1
   14910    14388    14416 1
   14911    14388    14417 1
   14912    14389    14390 1
   14913    14389    14418 1
   14914    14389    14419 1
   14915    14390    14420 1
   14916    14390    14421 1
   14917    14390    14422 1
   14918    14391    14392 1
   14919    14391    14423 1
   14920    14391    14424 1
   14921    14392    14393 1
   14922    14392    14425 1
   14923    14392    14426 1
   14924    14393    14394 1
   14925    14393    14427 1
   14926    14393    14428 1
   14927    14394    14395 1
   14928    14394    14429 1
   14929    14394    14430 1
   14930    14395    14396 1
   14931    14395    14431 1
   14932    14395    14432 1
   14933    14396    14397 1
   14934    14396    14433 1
   14935    14396    14434 1
   14936    14397    14398 1
   14937    14397    14435 1
   14938    14397    14436 1
   14939    14398    14437 1
   14940    14398    14438 1
   14941    14398    14439 1
   14942    14440    14441 1
   14943    14440    14460 1
   14944    14440    14461 1
   14945    14441    14442 1
   14946    14441    14452 1
   14947    14441    14462 1
   14948    14442    14443 1
   14949    14442    14463 1
   14950    14442    14464 1
   14951    14443    14444 1
   14952    14443    14465 1
   14953    14443    14466 1
   14954    14444    14445 1
   14955    14444    14467 1
   14956    14444    14468 1
   14957    14445    14446 1
   14958    14445    14469 1
   14959    14445    14470 1
   14960    14446    14447 1
   14961    14446    14471 1
   14962    14446    14472 1
   14963    14447    14448 1
   14964    14447    14473 1
   14965    14447    14474 1
   14966    14448    14449 1
   14967    14448    14475 1
   14968    14448    14476 1
   14969    14449    14450 1
   14970    14449    14477 1
   14971    14449    14478 1
   14972    14450    14451 1
   14973    14450    14479 1
   14974    14450    14480 1
   14975    14451    14481 1
   14976    14451    14482 1
   14977    14451    14483 1
   14978    14452    14453 1
   14979    14452    14484 1
   14980    14452    14485 1
   14981    14453    14454 1
   14982    14453    14486 1
   14983    14453    14487 1
   14984    14454    14455 1
   14985    14454    14488 1
   14986    14454    14489 1
   14987    14455    14456 1
   14988    14455    14490 1
   14989    14455    14491 1
   14990    14456    14457 1
   14991    14456    14492 1
   14992    14456    14493 1
   14993    14457    14458 1
   14994    14457    14494 1
   14995    14457    14495 1
   14996    14458    14459 1
   14997    14458    14496 1
   14998    14458    14497 1
   14999    14459    14498 1
   15000    14459    14499 1
   15001    14459    14500 1
@<TRIPOS>SUBSTRUCTURE
       1 RES             1 RESIDUE    0 **** ROOT      0
