@<TRIPOS>MOLECULE
RES
1962 2061 1 0 1
SMALL
NO_CHARGES
@<TRIPOS>CRYSIN
   94.1847   164.9729    56.6165    90.0000    90.0000    90.0000 1 1
@<TRIPOS>ATOM
       1 C0           9.6646     9.5608     8.7559 C0            1 RES     
       2 C1           8.5214     9.8101     9.7624 C1            1 RES     
       3 C1           8.9681    10.3775    10.9207 C1            1 RES     
       4 S2           7.7111    10.7517    12.0054 S2            1 RES     
       5 C1           6.5367    10.0537    10.9832 C1            1 RES     
       6 C1           7.1587     9.5973     9.8286 C1            1 RES     
       7 C1          10.3974    10.4618    10.8603 C1            1 RES     
       8 C1          10.7966    10.0013     9.6939 C1            1 RES     
       9 C1          12.2428     9.8815     9.6009 C1            1 RES     
      10 C1          12.8220    10.2255    10.8146 C1            1 RES     
      11 S2          11.6624    10.8663    12.0507 S2            1 RES     
      12 H3           6.5746     9.1653     9.0907 H3            1 RES     
      13 H3          12.7763     9.4386     8.7704 H3            1 RES     
      14 C0          -2.3899     8.8576     8.4198 C0            1 RES     
      15 C1          -3.5128     9.1133     9.4439 C1            1 RES     
      16 C1          -3.0922     9.7003    10.6020 C1            1 RES     
      17 S2          -4.3588    10.0341    11.6938 S2            1 RES     
      18 C1          -5.4918     9.2828    10.6604 C1            1 RES     
      19 C1          -4.8569     8.8682     9.5028 C1            1 RES     
      20 C1          -1.6766     9.8071    10.5326 C1            1 RES     
      21 C1          -1.2400     9.2815     9.3508 C1            1 RES     
      22 C1           0.1552     9.1964     9.2836 C1            1 RES     
      23 C1           0.7639     9.7125    10.4440 C1            1 RES     
      24 S2          -0.4262    10.2735    11.5357 S2            1 RES     
      25 H3          -5.4179     8.4152     8.7638 H3            1 RES     
      26 H3           0.6942     8.7821     8.4359 H3            1 RES     
      27 C1           3.0587     8.6847    10.4194 C1            1 RES     
      28 F4           2.5426     7.5146     9.9568 F4            1 RES     
      29 C1           4.4375     8.7881    10.5907 C1            1 RES     
      30 C1           5.0526     9.9703    11.0585 C1            1 RES     
      31 C1           4.2126    11.0411    11.4087 C1            1 RES     
      32 N5           4.6701    12.2554    11.8238 N5            1 RES     
      33 S2           3.2786    13.1355    11.9373 S2            1 RES     
      34 N5           2.0875    12.0737    11.4848 N5            1 RES     
      35 C1           2.8095    10.9461    11.2153 C1            1 RES     
      36 C1           2.2227     9.7736    10.7052 C1            1 RES     
      37 H3           5.0529     7.9283    10.3400 H3            1 RES     
      38 C1          -7.8876    10.1201    10.8800 C1            1 RES     
      39 F4          -7.4877    11.3656    11.2209 F4            1 RES     
      40 C1          -9.2542     9.9000    10.6099 C1            1 RES     
      41 C1          -9.7236     8.6386    10.2135 C1            1 RES     
      42 C1          -8.8241     7.5843    10.1157 C1            1 RES     
      43 N5          -9.1794     6.3230     9.7598 N5            1 RES     
      44 S2          -7.7296     5.5298     9.7822 S2            1 RES     
      45 N5          -6.6516     6.7043    10.2050 N5            1 RES     
      46 C1          -7.4448     7.7996    10.3559 C1            1 RES     
      47 C1          -6.9579     9.0752    10.7054 C1            1 RES     
      48 H3          -9.9547    10.7226    10.6773 H3            1 RES     
      49 C0           9.7304    10.3508     7.3687 C0            1 RES     
      50 C0           9.3772    11.8658     7.0176 C0            1 RES     
      51 C0           7.8957    12.2615     7.3014 C0            1 RES     
      52 C0           7.6981    12.8206     8.7086 C0            1 RES     
      53 C0           6.2244    12.9721     9.0891 C0            1 RES     
      54 C0           5.5073    14.1133     8.3802 C0            1 RES     
      55 C0           9.6810    12.0290     5.4799 C0            1 RES     
      56 C0           9.2323    13.3318     4.7623 C0            1 RES     
      57 C0           9.6797    14.6491     5.4145 C0            1 RES     
      58 C0          11.1951    14.8363     5.5255 C0            1 RES     
      59 C0          11.8890    14.8449     4.1467 C0            1 RES     
      60 C0          13.3835    15.1070     4.2920 C0            1 RES     
      61 H6           9.1311     9.7796     6.6527 H6            1 RES     
      62 H6          10.7723    10.1882     7.0100 H6            1 RES     
      63 H6          10.0432    12.5815     7.5483 H6            1 RES     
      64 H6           7.2259    11.4187     7.0569 H6            1 RES     
      65 H6           7.5591    13.1032     6.6800 H6            1 RES     
      66 H6           8.1464    12.1532     9.4224 H6            1 RES     
      67 H6           8.2391    13.7840     8.8310 H6            1 RES     
      68 H6           6.1978    13.1979    10.1696 H6            1 RES     
      69 H6           5.6903    12.0125     8.9041 H6            1 RES     
      70 H6           5.9996    15.0753     8.6367 H6            1 RES     
      71 H6           5.4998    13.9762     7.2809 H6            1 RES     
      72 H6           4.4562    14.1503     8.7393 H6            1 RES     
      73 H6          10.7769    11.9083     5.3367 H6            1 RES     
      74 H6           9.1852    11.2093     4.9137 H6            1 RES     
      75 H6           8.1264    13.3479     4.6761 H6            1 RES     
      76 H6           9.5828    13.2893     3.7092 H6            1 RES     
      77 H6           9.2586    15.4895     4.8214 H6            1 RES     
      78 H6           9.2472    14.7201     6.4341 H6            1 RES     
      79 H6          11.3857    15.8080     6.0164 H6            1 RES     
      80 H6          11.6327    14.0368     6.1550 H6            1 RES     
      81 H6          11.4508    15.6468     3.5082 H6            1 RES     
      82 H6          11.7570    13.8628     3.6424 H6            1 RES     
      83 H6          13.8621    15.1039     3.2916 H6            1 RES     
      84 H6          13.8467    14.3208     4.9165 H6            1 RES     
      85 H6          13.5485    16.0993     4.7646 H6            1 RES     
      86 C0           9.8517     8.0209     8.4800 C0            1 RES     
      87 C0           9.0633     7.1723     7.3857 C0            1 RES     
      88 C0           7.5004     7.1636     7.4702 C0            1 RES     
      89 C0           6.8347     8.3754     6.7753 C0            1 RES     
      90 C0           5.3028     8.4470     6.9613 C0            1 RES     
      91 C0           4.5273     7.4883     6.0811 C0            1 RES     
      92 C0           9.6432     5.7231     7.5071 C0            1 RES     
      93 C0           9.0548     4.6243     6.5939 C0            1 RES     
      94 C0           9.0557     4.9368     5.0863 C0            1 RES     
      95 C0          10.4391     5.1802     4.4623 C0            1 RES     
      96 C0          11.3768     3.9709     4.5901 C0            1 RES     
      97 C0          12.6941     4.2234     3.8632 C0            1 RES     
      98 H6           9.7532     7.5080     9.4628 H6            1 RES     
      99 H6          10.9159     7.9081     8.1717 H6            1 RES     
     100 H6           9.3318     7.5241     6.3664 H6            1 RES     
     101 H6           7.1977     7.0325     8.5303 H6            1 RES     
     102 H6           7.0839     6.3154     6.9049 H6            1 RES     
     103 H6           7.2352     9.2816     7.2080 H6            1 RES     
     104 H6           7.0956     8.4243     5.6969 H6            1 RES     
     105 H6           4.9676     9.4776     6.7117 H6            1 RES     
     106 H6           5.0191     8.2472     8.0104 H6            1 RES     
     107 H6           4.7158     7.7341     5.0158 H6            1 RES     
     108 H6           4.8092     6.4381     6.2908 H6            1 RES     
     109 H6           3.4432     7.6189     6.2911 H6            1 RES     
     110 H6          10.7372     5.7713     7.3097 H6            1 RES     
     111 H6           9.5135     5.3628     8.5513 H6            1 RES     
     112 H6           8.0126     4.4050     6.9012 H6            1 RES     
     113 H6           9.6122     3.6826     6.7813 H6            1 RES     
     114 H6           8.5796     4.0798     4.5610 H6            1 RES     
     115 H6           8.4225     5.8293     4.8980 H6            1 RES     
     116 H6          10.2787     5.3912     3.3816 H6            1 RES     
     117 H6          10.9114     6.0756     4.9188 H6            1 RES     
     118 H6          10.8938     3.0718     4.1489 H6            1 RES     
     119 H6          11.5997     3.7720     5.6592 H6            1 RES     
     120 H6          13.3573     3.3401     3.9767 H6            1 RES     
     121 H6          13.2060     5.1122     4.2892 H6            1 RES     
     122 H6          12.5095     4.3916     2.7806 H6            1 RES     
     123 C0          -2.3671     9.6689     7.0424 C0            1 RES     
     124 C0          -2.7660    11.1824     6.6972 C0            1 RES     
     125 C0          -4.2551    11.5625     6.9862 C0            1 RES     
     126 C0          -4.4734    12.0937     8.4006 C0            1 RES     
     127 C0          -5.9505    12.2117     8.7813 C0            1 RES     
     128 C0          -6.6994    13.3489     8.0990 C0            1 RES     
     129 C0          -2.4789    11.3496     5.1561 C0            1 RES     
     130 C0          -2.9594    12.6384     4.4350 C0            1 RES     
     131 C0          -2.5237    13.9701     5.0704 C0            1 RES     
     132 C0          -1.0074    14.1730     5.1621 C0            1 RES     
     133 C0          -0.3242    14.1756     3.7878 C0            1 RES     
     134 C0           1.1684    14.4422     3.9281 C0            1 RES     
     135 H6          -2.9620     9.0892     6.3310 H6            1 RES     
     136 H6          -1.3292     9.5305     6.6662 H6            1 RES     
     137 H6          -2.1106    11.9101     7.2241 H6            1 RES     
     138 H6          -4.9222    10.7286     6.7165 H6            1 RES     
     139 H6          -4.5953    12.4159     6.3821 H6            1 RES     
     140 H6          -4.0231    11.4205     9.1029 H6            1 RES     
     141 H6          -3.9482    13.0621     8.5454 H6            1 RES     
     142 H6          -5.9740    12.4234     9.8653 H6            1 RES     
     143 H6          -6.4651    11.2451     8.5819 H6            1 RES     
     144 H6          -6.2313    14.3179     8.3721 H6            1 RES     
     145 H6          -6.7125    13.2311     6.9978 H6            1 RES     
     146 H6          -7.7489    13.3528     8.4674 H6            1 RES     
     147 H6          -1.3854    11.2461     5.0005 H6            1 RES     
     148 H6          -2.9708    10.5212     4.5984 H6            1 RES     
     149 H6          -4.0656    12.6418     4.3626 H6            1 RES     
     150 H6          -2.6200    12.5953     3.3794 H6            1 RES     
     151 H6          -2.9583    14.7998     4.4691 H6            1 RES     
     152 H6          -2.9498    14.0483     6.0926 H6            1 RES     
     153 H6          -0.8317    15.1571     5.6497 H6            1 RES     
     154 H6          -0.5626    13.3853     5.8071 H6            1 RES     
     155 H6          -0.7747    14.9651     3.1464 H6            1 RES     
     156 H6          -0.4539    13.1919     3.2906 H6            1 RES     
     157 H6           1.6427    14.4335     2.9246 H6            1 RES     
     158 H6           1.6393    13.6546     4.5544 H6            1 RES     
     159 H6           1.3388    15.4347     4.3969 H6            1 RES     
     160 C0          -2.2460     7.3143     8.1171 C0            1 RES     
     161 C0          -3.0756     6.4929     7.0201 C0            1 RES     
     162 C0          -4.6410     6.5113     7.1043 C0            1 RES     
     163 C0          -5.2920     7.7376     6.4157 C0            1 RES     
     164 C0          -6.8203     7.8523     6.6102 C0            1 RES     
     165 C0          -7.6268     6.8838     5.7660 C0            1 RES     
     166 C0          -2.5365     5.0278     7.1257 C0            1 RES     
     167 C0          -3.1526     3.9503     6.2033 C0            1 RES     
     168 C0          -3.1476     4.2757     4.6986 C0            1 RES     
     169 C0          -1.7621     4.5178     4.0798 C0            1 RES     
     170 C0          -0.8243     3.3097     4.2128 C0            1 RES     
     171 C0           0.4937     3.5622     3.4875 C0            1 RES     
     172 H6          -2.3405     6.7896     9.0943 H6            1 RES     
     173 H6          -1.1898     7.1846     7.7901 H6            1 RES     
     174 H6          -2.8065     6.8458     6.0012 H6            1 RES     
     175 H6          -4.9408     6.3626     8.1598 H6            1 RES     
     176 H6          -5.0753     5.6757     6.5344 H6            1 RES     
     177 H6          -4.8742     8.6336     6.8488 H6            1 RES     
     178 H6          -5.0379     7.7787     5.3354 H6            1 RES     
     179 H6          -7.1333     8.8816     6.3278 H6            1 RES     
     180 H6          -7.0984     7.7049     7.6690 H6            1 RES     
     181 H6          -7.4415     7.0895     4.6914 H6            1 RES     
     182 H6          -7.3699     5.8340     6.0067 H6            1 RES     
     183 H6          -8.7065     7.0460     5.9771 H6            1 RES     
     184 H6          -1.4424     5.0489     6.9279 H6            1 RES     
     185 H6          -2.6771     4.6620     8.1666 H6            1 RES     
     186 H6          -4.1986     3.7462     6.5091 H6            1 RES     
     187 H6          -2.6132     2.9962     6.3801 H6            1 RES     
     188 H6          -3.6281     3.4256     4.1656 H6            1 RES     
     189 H6          -3.7751     5.1737     4.5161 H6            1 RES     
     190 H6          -1.9183     4.7303     2.9990 H6            1 RES     
     191 H6          -1.2911     5.4127     4.5392 H6            1 RES     
     192 H6          -1.3054     2.4086     3.7739 H6            1 RES     
     193 H6          -0.6036     3.1148     5.2834 H6            1 RES     
     194 H6           1.1590     2.6813     3.6062 H6            1 RES     
     195 H6           1.0026     4.4548     3.9097 H6            1 RES     
     196 H6           0.3099     3.7247     2.4038 H6            1 RES     
     197 C0         -14.1244     6.6423     7.8583 C0            1 RES     
     198 C1         -15.3102     6.6030     8.8454 C1            1 RES     
     199 C1         -15.0834     7.3646     9.9552 C1            1 RES     
     200 S2         -16.4174     7.4146    11.0110 S2            1 RES     
     201 C1         -17.2997     6.3160    10.0488 C1            1 RES     
     202 C1         -16.5434     5.9879     8.9314 C1            1 RES     
     203 C1         -13.7476     7.8786     9.8848 C1            1 RES     
     204 C1         -13.2018     7.4774     8.7565 C1            1 RES     
     205 C1         -11.7867     7.8006     8.6694 C1            1 RES     
     206 C1         -11.3666     8.3950     9.8514 C1            1 RES     
     207 S2         -12.6928     8.7391    11.0372 S2            1 RES     
     208 H3         -16.9514     5.3439     8.2306 H3            1 RES     
     209 H3         -11.1257     7.4822     7.8743 H3            1 RES     
     210 C0         -25.3750     2.2514     7.6084 C0            1 RES     
     211 C1         -26.5438     2.2256     8.6125 C1            1 RES     
     212 C1         -26.3478     2.9978     9.7207 C1            1 RES     
     213 S2         -27.6788     3.0071    10.7867 S2            1 RES     
     214 C1         -28.5051     1.8697     9.8174 C1            1 RES     
     215 C1         -27.7493     1.5850     8.6937 C1            1 RES     
     216 C1         -25.0317     3.5283     9.6396 C1            1 RES     
     217 C1         -24.4301     3.0757     8.5009 C1            1 RES     
     218 C1         -23.0747     3.4180     8.4369 C1            1 RES     
     219 C1         -22.6781     4.1808     9.5524 C1            1 RES     
     220 S2         -24.0058     4.4292    10.6005 S2            1 RES     
     221 H3         -28.1288     0.9281     7.9933 H3            1 RES     
     222 H3         -22.4169     3.1273     7.6224 H3            1 RES     
     223 C1         -20.1789     3.9079     9.6015 C1            1 RES     
     224 F4         -20.3020     2.6049     9.2321 F4            1 RES     
     225 C1         -18.9019     4.4418     9.7607 C1            1 RES     
     226 C1         -18.6883     5.7871    10.1341 C1            1 RES     
     227 C1         -19.8230     6.5714    10.4026 C1            1 RES     
     228 N5         -19.7681     7.8948    10.7214 N5            1 RES     
     229 S2         -21.3643     8.3114    10.7701 S2            1 RES     
     230 N5         -22.1633     6.9048    10.4041 N5            1 RES     
     231 C1         -21.1252     6.0364    10.2207 C1            1 RES     
     232 C1         -21.3139     4.7058     9.8043 C1            1 RES     
     233 H3         -18.0476     3.7961     9.5757 H3            1 RES     
     234 C1         -31.0463     1.9454     9.9777 C1            1 RES     
     235 F4         -31.0542     3.2753    10.2202 F4            1 RES     
     236 C1         -32.2739     1.2972     9.7289 C1            1 RES     
     237 C1         -32.3261    -0.0732     9.4324 C1            1 RES     
     238 C1         -31.1451    -0.8049     9.4142 C1            1 RES     
     239 N5         -31.0896    -2.1371     9.1578 N5            1 RES     
     240 S2         -29.4674    -2.4433     9.2377 S2            1 RES     
     241 N5         -28.8100    -0.9666     9.5657 N5            1 RES     
     242 C1         -29.9034    -0.1595     9.6335 C1            1 RES     
     243 C1         -29.8379     1.2263     9.8820 C1            1 RES     
     244 H3         -33.1938     1.8678     9.7343 H3            1 RES     
     245 C0         -14.2740     7.3089     6.4140 C0            1 RES     
     246 C0         -15.0665     8.6120     5.9477 C0            1 RES     
     247 C0         -16.6037     8.5540     6.2038 C0            1 RES     
     248 C0         -16.9928     9.1285     7.5641 C0            1 RES     
     249 C0         -18.4499     8.8484     7.9355 C0            1 RES     
     250 C0         -19.4667     9.6584     7.1423 C0            1 RES     
     251 C0         -14.7945     8.7456     4.4012 C0            1 RES     
     252 C0         -15.6051     9.7908     3.5862 C0            1 RES     
     253 C0         -15.5964    11.2265     4.1334 C0            1 RES     
     254 C0         -14.2137    11.8773     4.2257 C0            1 RES     
     255 C0         -13.5266    11.9958     2.8486 C0            1 RES     
     256 C0         -12.1875    12.7139     2.9694 C0            1 RES     
     257 H6         -14.6543     6.5298     5.7459 H6            1 RES     
     258 H6         -13.2250     7.4477     6.0663 H6            1 RES     
     259 H6         -14.6630     9.5349     6.4198 H6            1 RES     
     260 H6         -16.9780     7.5306     6.0270 H6            1 RES     
     261 H6         -17.1684     9.2031     5.5201 H6            1 RES     
     262 H6         -16.3771     8.6859     8.3262 H6            1 RES     
     263 H6         -16.7755    10.2177     7.6102 H6            1 RES     
     264 H6         -18.5674     9.1348     8.9954 H6            1 RES     
     265 H6         -18.6606     7.7602     7.8266 H6            1 RES     
     266 H6         -19.2980    10.7414     7.3224 H6            1 RES     
     267 H6         -19.4084     9.4443     6.0569 H6            1 RES     
     268 H6         -20.4860     9.3978     7.5002 H6            1 RES     
     269 H6         -13.7115     8.9567     4.2650 H6            1 RES     
     270 H6         -15.0034     7.7736     3.9014 H6            1 RES     
     271 H6         -16.6607     9.4603     3.5018 H6            1 RES     
     272 H6         -15.2360     9.7796     2.5386 H6            1 RES     
     273 H6         -16.2418    11.8506     3.4782 H6            1 RES     
     274 H6         -16.0515    11.2370     5.1456 H6            1 RES     
     275 H6         -14.3402    12.8943     4.6395 H6            1 RES     
     276 H6         -13.5659    11.2998     4.9140 H6            1 RES     
     277 H6         -14.1755    12.5748     2.1511 H6            1 RES     
     278 H6         -13.3409    10.9860     2.4221 H6            1 RES     
     279 H6         -11.7097    12.7834     1.9710 H6            1 RES     
     280 H6         -11.5193    12.1565     3.6516 H6            1 RES     
     281 H6         -12.3443    13.7412     3.3634 H6            1 RES     
     282 C0         -13.4691     5.2181     7.7018 C0            1 RES     
     283 C0         -13.9364     4.0896     6.6785 C0            1 RES     
     284 C0         -15.4230     3.6081     6.7674 C0            1 RES     
     285 C0         -16.4127     4.5019     5.9825 C0            1 RES     
     286 C0         -17.8966     4.1137     6.1664 C0            1 RES     
     287 C0         -18.3225     2.9006     5.3649 C0            1 RES     
     288 C0         -12.9434     2.9015     6.9101 C0            1 RES     
     289 C0         -13.1476     1.6104     6.0861 C0            1 RES     
     290 C0         -13.2103     1.7951     4.5588 C0            1 RES     
     291 C0         -11.9549     2.4041     3.9144 C0            1 RES     
     292 C0         -10.6950     1.5538     4.1329 C0            1 RES     
     293 C0          -9.5030     2.1435     3.3853 C0            1 RES     
     294 H6         -13.4267     4.7743     8.7216 H6            1 RES     
     295 H6         -12.4151     5.4147     7.4005 H6            1 RES     
     296 H6         -13.7668     4.4300     5.6343 H6            1 RES     
     297 H6         -15.6936     3.4696     7.8352 H6            1 RES     
     298 H6         -15.5477     2.6334     6.2704 H6            1 RES     
     299 H6         -16.3182     5.5169     6.3428 H6            1 RES     
     300 H6         -16.1564     4.5482     4.9029 H6            1 RES     
     301 H6         -18.5258     4.9701     5.8387 H6            1 RES     
     302 H6         -18.1278     3.9151     7.2285 H6            1 RES     
     303 H6         -18.1956     3.1124     4.2833 H6            1 RES     
     304 H6         -17.7372     2.0062     5.6545 H6            1 RES     
     305 H6         -19.3987     2.7075     5.5670 H6            1 RES     
     306 H6         -11.9127     3.2682     6.7067 H6            1 RES     
     307 H6         -12.9788     2.5975     7.9793 H6            1 RES     
     308 H6         -14.0790     1.1054     6.4121 H6            1 RES     
     309 H6         -12.3329     0.9018     6.3443 H6            1 RES     
     310 H6         -13.3899     0.7967     4.1026 H6            1 RES     
     311 H6         -14.0822     2.4336     4.3037 H6            1 RES     
     312 H6         -12.1491     2.4747     2.8210 H6            1 RES     
     313 H6         -11.7892     3.4325     4.2990 H6            1 RES     
     314 H6         -10.8700     0.5197     3.7638 H6            1 RES     
     315 H6         -10.4447     1.5130     5.2136 H6            1 RES     
     316 H6          -8.6038     1.5174     3.5650 H6            1 RES     
     317 H6          -9.2969     3.1756     3.7400 H6            1 RES     
     318 H6          -9.7071     2.1660     2.2934 H6            1 RES     
     319 C0         -25.5723     2.9257     6.1724 C0            1 RES     
     320 C0         -26.4079     4.2137     5.7122 C0            1 RES     
     321 C0         -27.9476     4.1390     5.9747 C0            1 RES     
     322 C0         -28.3481     4.6813     7.3444 C0            1 RES     
     323 C0         -29.7982     4.3683     7.7186 C0            1 RES     
     324 C0         -30.8445     5.1668     6.9523 C0            1 RES     
     325 C0         -26.1530     4.3459     4.1620 C0            1 RES     
     326 C0         -26.9894     5.3677     3.3446 C0            1 RES     
     327 C0         -26.9959     6.8122     3.8740 C0            1 RES     
     328 C0         -25.6168     7.4768     3.9459 C0            1 RES     
     329 C0         -24.9381     7.5867     2.5738 C0            1 RES     
     330 C0         -23.6021     8.3080     2.6892 C0            1 RES     
     331 H6         -25.9459     2.1402     5.5094 H6            1 RES     
     332 H6         -24.5341     3.0849     5.8053 H6            1 RES     
     333 H6         -26.0180     5.1445     6.1795 H6            1 RES     
     334 H6         -28.3215     3.1230     5.7720 H6            1 RES     
     335 H6         -28.5198     4.7994     5.3073 H6            1 RES     
     336 H6         -27.7284     4.2329     8.0955 H6            1 RES     
     337 H6         -28.1478     5.7720     7.4125 H6            1 RES     
     338 H6         -29.9085     4.6426     8.7830 H6            1 RES     
     339 H6         -29.9878     3.2784     7.5958 H6            1 RES     
     340 H6         -30.7015     6.2502     7.1484 H6            1 RES     
     341 H6         -30.7975     4.9691     5.8635 H6            1 RES     
     342 H6         -31.8525     4.8759     7.3220 H6            1 RES     
     343 H6         -25.0772     4.5716     4.0121 H6            1 RES     
     344 H6         -26.3557     3.3674     3.6713 H6            1 RES     
     345 H6         -28.0418     5.0261     3.2750 H6            1 RES     
     346 H6         -26.6307     5.3524     2.2947 H6            1 RES     
     347 H6         -27.6507     7.4214     3.2115 H6            1 RES     
     348 H6         -27.4472     6.8317     4.8882 H6            1 RES     
     349 H6         -25.7612     8.5007     4.3555 H6            1 RES     
     350 H6         -24.9661     6.9138     4.6487 H6            1 RES     
     351 H6         -25.5949     8.1498     1.8744 H6            1 RES     
     352 H6         -24.7498     6.5765     2.1545 H6            1 RES     
     353 H6         -23.1266     8.3707     1.6882 H6            1 RES     
     354 H6         -22.9262     7.7518     3.3733 H6            1 RES     
     355 H6         -23.7537     9.3369     3.0794 H6            1 RES     
     356 C0         -24.7591     0.8087     7.4256 C0            1 RES     
     357 C0         -25.2739    -0.3069     6.3975 C0            1 RES     
     358 C0         -26.7712    -0.7635     6.4841 C0            1 RES     
     359 C0         -27.7515     0.1491     5.7044 C0            1 RES     
     360 C0         -29.2454    -0.1965     5.8933 C0            1 RES     
     361 C0         -29.6985    -1.4257     5.1286 C0            1 RES     
     362 C0         -24.3146    -1.5238     6.6147 C0            1 RES     
     363 C0         -24.5515    -2.8038     5.7800 C0            1 RES     
     364 C0         -24.6143    -2.6054     4.2546 C0            1 RES     
     365 C0         -23.3566    -1.9966     3.6154 C0            1 RES     
     366 C0         -22.0970    -2.8453     3.8391 C0            1 RES     
     367 C0         -20.9045    -2.2553     3.0930 C0            1 RES     
     368 H6         -24.7093     0.3545     8.4407 H6            1 RES     
     369 H6         -23.7072     0.9854     7.1069 H6            1 RES     
     370 H6         -25.1041     0.0348     5.3537 H6            1 RES     
     371 H6         -27.0335    -0.9180     7.5487 H6            1 RES     
     372 H6         -26.9167    -1.7320     5.9816 H6            1 RES     
     373 H6         -27.6374     1.1597     6.0658 H6            1 RES     
     374 H6         -27.4993     0.1858     4.6235 H6            1 RES     
     375 H6         -29.8523     0.6631     5.5330 H6            1 RES     
     376 H6         -29.4875    -0.3429     6.9611 H6            1 RES     
     377 H6         -29.5622    -1.2536     4.0408 H6            1 RES     
     378 H6         -29.1378    -2.3251     5.4491 H6            1 RES     
     379 H6         -30.7803    -1.5874     5.3293 H6            1 RES     
     380 H6         -23.2755    -1.1828     6.4131 H6            1 RES     
     381 H6         -24.3586    -1.8366     7.6812 H6            1 RES     
     382 H6         -25.4911    -3.2957     6.1033 H6            1 RES     
     383 H6         -23.7498    -3.5304     6.0287 H6            1 RES     
     384 H6         -24.8001    -3.5991     3.7902 H6            1 RES     
     385 H6         -25.4825    -1.9595     4.0048 H6            1 RES     
     386 H6         -23.5473    -1.9233     2.5218 H6            1 RES     
     387 H6         -23.1920    -0.9688     4.0030 H6            1 RES     
     388 H6         -22.2698    -3.8806     3.4724 H6            1 RES     
     389 H6         -21.8501    -2.8829     4.9210 H6            1 RES     
     390 H6         -20.0041    -2.8781     3.2778 H6            1 RES     
     391 H6         -20.7023    -1.2208     3.4436 H6            1 RES     
     392 H6         -21.1061    -2.2381     2.0005 H6            1 RES     
     393 C0         -35.8533    -3.4929     7.2499 C0            1 RES     
     394 C1         -36.9909    -3.8206     8.2402 C1            1 RES     
     395 C1         -37.0318    -2.9458     9.2872 C1            1 RES     
     396 S2         -38.3393    -3.2291    10.3393 S2            1 RES     
     397 C1         -38.8222    -4.6139     9.4672 C1            1 RES     
     398 C1         -37.9782    -4.7763     8.3766 C1            1 RES     
     399 C1         -35.9163    -2.0534     9.1738 C1            1 RES     
     400 C1         -35.2500    -2.3506     8.0785 C1            1 RES     
     401 C1         -34.0002    -1.6163     7.9630 C1            1 RES     
     402 C1         -33.8075    -0.8354     9.0944 C1            1 RES     
     403 S2         -35.2003    -0.8276    10.2534 S2            1 RES     
     404 H3         -38.1544    -5.5646     7.7287 H3            1 RES     
     405 H3         -33.2567    -1.7746     7.1932 H3            1 RES     
     406 C0         -45.2118   -11.1299     7.3691 C0            1 RES     
     407 C1         -46.3377   -11.4382     8.3752 C1            1 RES     
     408 C1         -46.4112   -10.5630     9.4198 C1            1 RES     
     409 S2         -47.7034   -10.8832    10.4853 S2            1 RES     
     410 C1         -48.1211   -12.2881     9.6090 C1            1 RES     
     411 C1         -47.2907   -12.4099     8.5087 C1            1 RES     
     412 C1         -45.3192    -9.6618     9.2946 C1            1 RES     
     413 C1         -44.5838    -9.9914     8.1928 C1            1 RES     
     414 C1         -43.3973    -9.2555     8.0990 C1            1 RES     
     415 C1         -43.2770    -8.3270     9.1511 C1            1 RES     
     416 S2         -44.6390    -8.4208    10.1803 S2            1 RES     
     417 H3         -47.4359   -13.2018     7.8623 H3            1 RES     
     418 H3         -42.6648    -9.3901     7.3078 H3            1 RES     
     419 C1         -40.8158    -7.8155     9.2148 C1            1 RES     
     420 F4         -40.5263    -9.1172     8.9476 F4            1 RES     
     421 C1         -39.7673    -6.9052     9.3290 C1            1 RES     
     422 C1         -39.9837    -5.5355     9.5967 C1            1 RES     
     423 C1         -41.3095    -5.1194     9.8067 C1            1 RES     
     424 N5         -41.6692    -3.8231    10.0220 N5            1 RES     
     425 S2         -43.3169    -3.9140    10.0424 S2            1 RES     
     426 N5         -43.6390    -5.5211     9.7883 N5            1 RES     
     427 C1         -42.3813    -6.0402     9.6700 C1            1 RES     
     428 C1         -42.1447    -7.3916     9.3583 C1            1 RES     
     429 H3         -38.7527    -7.2695     9.1923 H3            1 RES     
     430 C1         -50.5663   -12.9841     9.7694 C1            1 RES     
     431 F4         -50.9861   -11.7066     9.9084 F4            1 RES     
     432 C1         -51.5309   -13.9943     9.5747 C1            1 RES     
     433 C1         -51.1548   -15.3327     9.3852 C1            1 RES     
     434 C1         -49.8065   -15.6659     9.4205 C1            1 RES     
     435 N5         -49.3404   -16.9321     9.2678 N5            1 RES     
     436 S2         -47.7045   -16.7189     9.3671 S2            1 RES     
     437 N5         -47.5377   -15.0916     9.5782 N5            1 RES     
     438 C1         -48.8269   -14.6563     9.5861 C1            1 RES     
     439 C1         -49.1940   -13.3028     9.7266 C1            1 RES     
     440 H3         -52.5813   -13.7348     9.5383 H3            1 RES     
     441 C0         -36.1690    -3.0137     5.7588 C0            1 RES     
     442 C0         -37.3122    -2.0552     5.1951 C0            1 RES     
     443 C0         -38.7629    -2.5628     5.4589 C0            1 RES     
     444 C0         -39.3382    -2.0359     6.7717 C0            1 RES     
     445 C0         -40.6471    -2.7211     7.1674 C0            1 RES     
     446 C0         -41.8459    -2.3235     6.3165 C0            1 RES     
     447 C0         -37.0613    -1.9599     3.6423 C0            1 RES     
     448 C0         -38.1353    -1.2776     2.7509 C0            1 RES     
     449 C0         -38.5782     0.1281     3.1855 C0            1 RES     
     450 C0         -37.4634     1.1767     3.2236 C0            1 RES     
     451 C0         -36.8164     1.3976     1.8397 C0            1 RES     
     452 C0         -35.7643     2.4988     1.9012 C0            1 RES     
     453 H6         -36.2782    -3.9194     5.1539 H6            1 RES     
     454 H6         -35.2056    -2.5861     5.3987 H6            1 RES     
     455 H6         -37.2207    -1.0205     5.5934 H6            1 RES     
     456 H6         -38.8021    -3.6619     5.3627 H6            1 RES     
     457 H6         -39.4846    -2.1710     4.7285 H6            1 RES     
     458 H6         -38.6328    -2.2102     7.5642 H6            1 RES     
     459 H6         -39.4656    -0.9322     6.7329 H6            1 RES     
     460 H6         -40.8692    -2.4065     8.2022 H6            1 RES     
     461 H6         -40.5122    -3.8264     7.1435 H6            1 RES     
     462 H6         -42.0207    -1.2308     6.4119 H6            1 RES     
     463 H6         -41.7018    -2.5895     5.2508 H6            1 RES     
     464 H6         -42.7439    -2.8570     6.6960 H6            1 RES     
     465 H6         -36.0922    -1.4374     3.4873 H6            1 RES     
     466 H6         -36.9520    -2.9835     3.2196 H6            1 RES     
     467 H6         -39.0371    -1.9213     2.6951 H6            1 RES     
     468 H6         -37.7584    -1.2528     1.7064 H6            1 RES     
     469 H6         -39.3695     0.4735     2.4856 H6            1 RES     
     470 H6         -39.0361     0.0737     4.1949 H6            1 RES     
     471 H6         -37.9039     2.1337     3.5579 H6            1 RES     
     472 H6         -36.6848     0.8787     3.9529 H6            1 RES     
     473 H6         -37.5963     1.6959     1.1012 H6            1 RES     
     474 H6         -36.3214     0.4646     1.4921 H6            1 RES     
     475 H6         -35.3095     2.6371     0.8992 H6            1 RES     
     476 H6         -34.9722     2.2257     2.6228 H6            1 RES     
     477 H6         -36.2363     3.4548     2.2150 H6            1 RES     
     478 C0         -34.7903    -4.6548     7.2024 C0            1 RES     
     479 C0         -34.8678    -5.9451     6.2705 C0            1 RES     
     480 C0         -36.1372    -6.8515     6.4002 C0            1 RES     
     481 C0         -37.3361    -6.3654     5.5512 C0            1 RES     
     482 C0         -38.6335    -7.1755     5.7683 C0            1 RES     
     483 C0         -38.6504    -8.5168     5.0641 C0            1 RES     
     484 C0         -33.5640    -6.7506     6.5908 C0            1 RES     
     485 C0         -33.3456    -8.0995     5.8697 C0            1 RES     
     486 C0         -33.4293    -8.0572     4.3329 C0            1 RES     
     487 C0         -32.4071    -7.1420     3.6400 C0            1 RES     
     488 C0         -30.9524    -7.5459     3.9204 C0            1 RES     
     489 C0         -29.9825    -6.6763     3.1264 C0            1 RES     
     490 H6         -34.6359    -4.9871     8.2533 H6            1 RES     
     491 H6         -33.8409    -4.1673     6.8840 H6            1 RES     
     492 H6         -34.7884    -5.6478     5.2028 H6            1 RES     
     493 H6         -36.3751    -6.9865     7.4763 H6            1 RES     
     494 H6         -35.9470    -7.8516     5.9805 H6            1 RES     
     495 H6         -37.5645    -5.3466     5.8317 H6            1 RES     
     496 H6         -37.0833    -6.3232     4.4706 H6            1 RES     
     497 H6         -39.4875    -6.5802     5.3769 H6            1 RES     
     498 H6         -38.8154    -7.3558     6.8432 H6            1 RES     
     499 H6         -38.5715    -8.3573     3.9691 H6            1 RES     
     500 H6         -37.8257    -9.1643     5.4205 H6            1 RES     
     501 H6         -39.6200    -9.0152     5.2832 H6            1 RES     
     502 H6         -32.6910    -6.1015     6.3571 H6            1 RES     
     503 H6         -33.5274    -6.9703     7.6805 H6            1 RES     
     504 H6         -34.0844    -8.8402     6.2361 H6            1 RES     
     505 H6         -32.3588    -8.5027     6.1798 H6            1 RES     
     506 H6         -33.2849    -9.0935     3.9557 H6            1 RES     
     507 H6         -34.4491    -7.7378     4.0313 H6            1 RES     
     508 H6         -32.5903    -7.2160     2.5449 H6            1 RES     
     509 H6         -32.5724    -6.0867     3.9436 H6            1 RES     
     510 H6         -30.7946    -8.6084     3.6328 H6            1 RES     
     511 H6         -30.7247    -7.4275     5.0004 H6            1 RES     
     512 H6         -28.9389    -6.9812     3.3517 H6            1 RES     
     513 H6         -30.1099    -5.6074     3.3997 H6            1 RES     
     514 H6         -30.1604    -6.7988     2.0366 H6            1 RES     
     515 C0         -45.5754   -10.6574     5.8857 C0            1 RES     
     516 C0         -46.7551    -9.7258     5.3294 C0            1 RES     
     517 C0         -48.2033   -10.2497     5.6009 C0            1 RES     
     518 C0         -48.7797    -9.7562     6.9255 C0            1 RES     
     519 C0         -50.0720   -10.4702     7.3265 C0            1 RES     
     520 C0         -51.2959   -10.0906     6.5035 C0            1 RES     
     521 C0         -46.5199    -9.6376     3.7731 C0            1 RES     
     522 C0         -47.6114    -8.9855     2.8813 C0            1 RES     
     523 C0         -48.0710    -7.5775     3.2974 C0            1 RES     
     524 C0         -46.9634    -6.5184     3.3141 C0            1 RES     
     525 C0         -46.3219    -6.3079     1.9359 C0            1 RES     
     526 C0         -45.2736    -5.2049     1.9918 C0            1 RES     
     527 H6         -45.6764   -11.5666     5.2865 H6            1 RES     
     528 H6         -44.6281   -10.2151     5.5048 H6            1 RES     
     529 H6         -46.6790    -8.6883     5.7224 H6            1 RES     
     530 H6         -48.2439   -11.3435     5.4784 H6            1 RES     
     531 H6         -48.9358    -9.8482     4.8859 H6            1 RES     
     532 H6         -48.0686    -9.9356     7.7075 H6            1 RES     
     533 H6         -48.9243    -8.6546     6.9086 H6            1 RES     
     534 H6         -50.2835   -10.1646     8.3669 H6            1 RES     
     535 H6         -49.9162   -11.5717     7.2889 H6            1 RES     
     536 H6         -51.4955    -9.0041     6.6149 H6            1 RES     
     537 H6         -51.1674   -10.3447     5.4332 H6            1 RES     
     538 H6         -52.1740   -10.6484     6.8971 H6            1 RES     
     539 H6         -45.5620    -9.1045     3.6034 H6            1 RES     
     540 H6         -46.4029   -10.6647     3.3600 H6            1 RES     
     541 H6         -48.5069    -9.6377     2.8410 H6            1 RES     
     542 H6         -47.2430    -8.9680     1.8347 H6            1 RES     
     543 H6         -48.8666    -7.2496     2.5914 H6            1 RES     
     544 H6         -48.5281    -7.6220     4.3082 H6            1 RES     
     545 H6         -47.4230    -5.5606     3.6437 H6            1 RES     
     546 H6         -46.1868    -6.8006     4.0567 H6            1 RES     
     547 H6         -47.1045    -6.0271     1.1967 H6            1 RES     
     548 H6         -45.8245    -7.2398     1.5955 H6            1 RES     
     549 H6         -44.8189    -5.0741     0.9877 H6            1 RES     
     550 H6         -44.4746    -5.4744     2.7151 H6            1 RES     
     551 H6         -45.7412    -4.2461     2.3016 H6            1 RES     
     552 C0         -44.1801   -12.3234     7.2968 C0            1 RES     
     553 C0         -44.3067   -13.6163     6.3594 C0            1 RES     
     554 C0         -45.5939   -14.5026     6.4848 C0            1 RES     
     555 C0         -46.7896   -13.9954     5.6394 C0            1 RES     
     556 C0         -48.1096   -14.7677     5.8584 C0            1 RES     
     557 C0         -48.1483   -16.1299     5.1922 C0            1 RES     
     558 C0         -43.0258   -14.4605     6.6676 C0            1 RES     
     559 C0         -42.8417   -15.8098     5.9350 C0            1 RES     
     560 C0         -42.9297   -15.7543     4.3990 C0            1 RES     
     561 C0         -41.9053   -14.8383     3.7114 C0            1 RES     
     562 C0         -40.4516   -15.2405     3.9968 C0            1 RES     
     563 C0         -39.4812   -14.3702     3.2043 C0            1 RES     
     564 H6         -44.0153   -12.6636     8.3439 H6            1 RES     
     565 H6         -43.2263   -11.8567     6.9628 H6            1 RES     
     566 H6         -44.2274   -13.3177     5.2919 H6            1 RES     
     567 H6         -45.8189   -14.6505     7.5589 H6            1 RES     
     568 H6         -45.4251   -15.5035     6.0592 H6            1 RES     
     569 H6         -46.9980   -12.9746     5.9213 H6            1 RES     
     570 H6         -46.5377   -13.9637     4.5583 H6            1 RES     
     571 H6         -48.9427   -14.1651     5.4342 H6            1 RES     
     572 H6         -48.3180   -14.9015     6.9348 H6            1 RES     
     573 H6         -48.0481   -16.0057     4.0940 H6            1 RES     
     574 H6         -47.3462   -16.7874     5.5798 H6            1 RES     
     575 H6         -49.1327   -16.6003     5.4075 H6            1 RES     
     576 H6         -42.1369   -13.8331     6.4376 H6            1 RES     
     577 H6         -42.9947   -14.6915     7.7552 H6            1 RES     
     578 H6         -43.5923   -16.5408     6.2978 H6            1 RES     
     579 H6         -41.8615   -16.2348     6.2371 H6            1 RES     
     580 H6         -42.7924   -16.7888     4.0133 H6            1 RES     
     581 H6         -43.9484   -15.4264     4.1023 H6            1 RES     
     582 H6         -42.0860   -14.9086     2.6159 H6            1 RES     
     583 H6         -42.0716   -13.7837     4.0180 H6            1 RES     
     584 H6         -40.2912   -16.3031     3.7117 H6            1 RES     
     585 H6         -40.2281   -15.1199     5.0777 H6            1 RES     
     586 H6         -38.4376   -14.6712     3.4344 H6            1 RES     
     587 H6         -39.6130   -13.3005     3.4734 H6            1 RES     
     588 H6         -39.6551   -14.4970     2.1143 H6            1 RES     
     589 C0         -53.4187   -19.8221     7.4827 C0            1 RES     
     590 C1         -54.4221   -20.4084     8.4982 C1            1 RES     
     591 C1         -54.7511   -19.5131     9.4746 C1            1 RES     
     592 S2         -55.9312   -20.1048    10.5488 S2            1 RES     
     593 C1         -55.9484   -21.6318     9.7876 C1            1 RES     
     594 C1         -55.0722   -21.6080     8.7107 C1            1 RES     
     595 C1         -53.9602   -18.3325     9.2897 C1            1 RES     
     596 C1         -53.2117   -18.4915     8.2189 C1            1 RES     
     597 C1         -52.2446   -17.4198     8.0438 C1            1 RES     
     598 C1         -52.3243   -16.5357     9.1109 C1            1 RES     
     599 S2         -53.6770   -16.8693    10.2694 S2            1 RES     
     600 H3         -54.9848   -22.4583     8.1262 H3            1 RES     
     601 H3         -51.4721   -17.3992     7.2866 H3            1 RES     
     602 C0         -59.9905   -29.9311     8.2161 C0            1 RES     
     603 C1         -60.9891   -30.4943     9.2459 C1            1 RES     
     604 C1         -61.3492   -29.6087    10.2199 C1            1 RES     
     605 S2         -62.5038   -30.2298    11.3102 S2            1 RES     
     606 C1         -62.4527   -31.7562    10.5462 C1            1 RES     
     607 C1         -61.6016   -31.6987     9.4565 C1            1 RES     
     608 C1         -60.5832   -28.4278    10.0225 C1            1 RES     
     609 C1         -59.7589   -28.5969     8.9476 C1            1 RES     
     610 C1         -58.8528   -27.5415     8.7942 C1            1 RES     
     611 C1         -59.0450   -26.5454     9.7710 C1            1 RES     
     612 S2         -60.3345   -26.9757    10.8078 S2            1 RES     
     613 H3         -61.4836   -32.5428     8.8736 H3            1 RES     
     614 H3         -58.0976   -27.5034     8.0139 H3            1 RES     
     615 C1         -56.8605   -25.3001     9.7887 C1            1 RES     
     616 F4         -56.1808   -26.4663     9.6222 F4            1 RES     
     617 C1         -56.1436   -24.1062     9.8295 C1            1 RES     
     618 C1         -56.7746   -22.8530     9.9910 C1            1 RES     
     619 C1         -58.1682   -22.8494    10.1715 C1            1 RES     
     620 N5         -58.9119   -21.7137    10.2869 N5            1 RES     
     621 S2         -60.4528   -22.3040    10.3185 S2            1 RES     
     622 N5         -60.2620   -23.9466    10.1903 N5            1 RES     
     623 C1         -58.9035   -24.0621    10.1093 C1            1 RES     
     624 C1         -58.2581   -25.2949     9.9023 C1            1 RES     
     625 H3         -55.0635   -24.1507     9.7187 H3            1 RES     
     626 C1         -64.5703   -33.1549    10.7663 C1            1 RES     
     627 F4         -65.3638   -32.0612    10.8071 F4            1 RES     
     628 C1         -65.1750   -34.4239    10.6527 C1            1 RES     
     629 C1         -64.4033   -35.5925    10.5663 C1            1 RES     
     630 C1         -63.0188   -35.4924    10.6239 C1            1 RES     
     631 N5         -62.1843   -36.5621    10.5683 N5            1 RES     
     632 S2         -60.6947   -35.8505    10.6466 S2            1 RES     
     633 N5         -61.0386   -34.2396    10.7308 N5            1 RES     
     634 C1         -62.3990   -34.2214    10.7083 C1            1 RES     
     635 C1         -63.1657   -33.0394    10.7447 C1            1 RES     
     636 H3         -66.2533   -34.5026    10.5990 H3            1 RES     
     637 C0         -53.8341   -19.5752     5.9598 C0            1 RES     
     638 C0         -55.2034   -19.0584     5.3266 C0            1 RES     
     639 C0         -56.4344   -19.9656     5.6326 C0            1 RES     
     640 C0         -57.1712   -19.5444     6.9021 C0            1 RES     
     641 C0         -58.2157   -20.5668     7.3530 C0            1 RES     
     642 C0         -59.4602   -20.6206     6.4770 C0            1 RES     
     643 C0         -54.9608   -19.0065     3.7704 C0            1 RES     
     644 C0         -56.1729   -18.7549     2.8317 C0            1 RES     
     645 C0         -57.0339   -17.5247     3.1574 C0            1 RES     
     646 C0         -56.2947   -16.1848     3.1115 C0            1 RES     
     647 C0         -55.7170   -15.8797     1.7130 C0            1 RES     
     648 C0         -55.0540   -14.5074     1.6864 C0            1 RES     
     649 H6         -53.6479   -20.5131     5.4270 H6            1 RES     
     650 H6         -53.0404   -18.9006     5.5653 H6            1 RES     
     651 H6         -55.4416   -18.0190     5.6434 H6            1 RES     
     652 H6         -56.1333   -21.0276     5.6217 H6            1 RES     
     653 H6         -57.2257   -19.8696     4.8759 H6            1 RES     
     654 H6         -56.4634   -19.4345     7.7039 H6            1 RES     
     655 H6         -57.6295   -18.5392     6.7784 H6            1 RES     
     656 H6         -58.5454   -20.2595     8.3609 H6            1 RES     
     657 H6         -57.7485   -21.5759     7.4143 H6            1 RES     
     658 H6         -59.9631   -19.6304     6.4880 H6            1 RES     
     659 H6         -59.2189   -20.9081     5.4347 H6            1 RES     
     660 H6         -60.1597   -21.3742     6.8989 H6            1 RES     
     661 H6         -54.1951   -18.2250     3.5731 H6            1 RES     
     662 H6         -54.5344   -19.9756     3.4279 H6            1 RES     
     663 H6         -56.8329   -19.6466     2.8281 H6            1 RES     
     664 H6         -55.7994   -18.6935     1.7875 H6            1 RES     
     665 H6         -57.8779   -17.4919     2.4349 H6            1 RES     
     666 H6         -57.4746   -17.6417     4.1692 H6            1 RES     
     667 H6         -57.0140   -15.3871     3.3718 H6            1 RES     
     668 H6         -55.4779   -16.1744     3.8596 H6            1 RES     
     669 H6         -56.5349   -15.8908     0.9556 H6            1 RES     
     670 H6         -54.9529   -16.6389     1.4373 H6            1 RES     
     671 H6         -54.6422   -14.3112     0.6756 H6            1 RES     
     672 H6         -54.2319   -14.4698     2.4250 H6            1 RES     
     673 H6         -55.8026   -13.7218     1.9266 H6            1 RES     
     674 C0         -52.0502   -20.6020     7.5225 C0            1 RES     
     675 C0         -51.7092   -21.9194     6.6934 C0            1 RES     
     676 C0         -52.6427   -23.1593     6.8960 C0            1 RES     
     677 C0         -53.9144   -23.1291     6.0150 C0            1 RES     
     678 C0         -54.9059   -24.2796     6.2974 C0            1 RES     
     679 C0         -54.4964   -25.6099     5.6991 C0            1 RES     
     680 C0         -50.2286   -22.2597     7.0716 C0            1 RES     
     681 C0         -49.5924   -23.5264     6.4564 C0            1 RES     
     682 C0         -49.6523   -23.6261     4.9212 C0            1 RES     
     683 C0         -48.9448   -22.4957     4.1570 C0            1 RES     
     684 C0         -47.4425   -22.4117     4.4641 C0            1 RES     
     685 C0         -46.7688   -21.3480     3.6027 C0            1 RES     
     686 H6         -51.8240   -20.7917     8.5955 H6            1 RES     
     687 H6         -51.2891   -19.8718     7.1649 H6            1 RES     
     688 H6         -51.7019   -21.6923     5.6056 H6            1 RES     
     689 H6         -52.8507   -23.2803     7.9799 H6            1 RES     
     690 H6         -52.1466   -24.0810     6.5544 H6            1 RES     
     691 H6         -54.4496   -22.2115     6.2164 H6            1 RES     
     692 H6         -53.6638   -23.0918     4.9337 H6            1 RES     
     693 H6         -55.8926   -24.0059     5.8634 H6            1 RES     
     694 H6         -55.0467   -24.4266     7.3835 H6            1 RES     
     695 H6         -54.4468   -25.5158     4.5948 H6            1 RES     
     696 H6         -53.5209   -25.9447     6.1024 H6            1 RES     
     697 H6         -55.2713   -26.3640     5.9586 H6            1 RES     
     698 H6         -49.5914   -21.3934     6.7862 H6            1 RES     
     699 H6         -50.1497   -22.3760     8.1749 H6            1 RES     
     700 H6         -50.0766   -24.4286     6.8809 H6            1 RES     
     701 H6         -48.5364   -23.5830     6.7943 H6            1 RES     
     702 H6         -49.1896   -24.5932     4.6249 H6            1 RES     
     703 H6         -50.7143   -23.6584     4.5984 H6            1 RES     
     704 H6         -49.0732   -22.7035     3.0714 H6            1 RES     
     705 H6         -49.4316   -21.5225     4.3785 H6            1 RES     
     706 H6         -46.9610   -23.3928     4.2591 H6            1 RES     
     707 H6         -47.2851   -22.1491     5.5311 H6            1 RES     
     708 H6         -45.6869   -21.3003     3.8483 H6            1 RES     
     709 H6         -47.2230   -20.3525     3.7928 H6            1 RES     
     710 H6         -46.8773   -21.6000     2.5261 H6            1 RES     
     711 C0         -60.4496   -29.7046     6.7015 C0            1 RES     
     712 C0         -61.8457   -29.2241     6.0779 C0            1 RES     
     713 C0         -63.0695   -30.1453     6.3927 C0            1 RES     
     714 C0         -63.7973   -29.7554     7.6767 C0            1 RES     
     715 C0         -64.8172   -30.7996     8.1350 C0            1 RES     
     716 C0         -66.0808   -30.8762     7.2882 C0            1 RES     
     717 C0         -61.6157   -29.1840     4.5187 C0            1 RES     
     718 C0         -62.8352   -28.9665     3.5820 C0            1 RES     
     719 C0         -63.7125   -27.7405     3.8891 C0            1 RES     
     720 C0         -62.9829   -26.3945     3.8211 C0            1 RES     
     721 C0         -62.4073   -26.1005     2.4290 C0            1 RES     
     722 C0         -61.7484   -24.7281     2.3968 C0            1 RES     
     723 H6         -60.2546   -30.6430     6.1746 H6            1 RES     
     724 H6         -59.6753   -29.0227     6.2851 H6            1 RES     
     725 H6         -62.0992   -28.1871     6.3893 H6            1 RES     
     726 H6         -62.7707   -31.2048     6.3552 H6            1 RES     
     727 H6         -63.8743   -30.0424     5.6507 H6            1 RES     
     728 H6         -63.0823   -29.6493     8.4684 H6            1 RES     
     729 H6         -64.2718   -28.7558     7.5750 H6            1 RES     
     730 H6         -65.1343   -30.4971     9.1491 H6            1 RES     
     731 H6         -64.3311   -31.7997     8.1823 H6            1 RES     
     732 H6         -66.6058   -29.8982     7.3158 H6            1 RES     
     733 H6         -65.8579   -31.1575     6.2404 H6            1 RES     
     734 H6         -66.7542   -31.6456     7.7261 H6            1 RES     
     735 H6         -60.8636   -28.3968     4.3059 H6            1 RES     
     736 H6         -61.1812   -30.1534     4.1861 H6            1 RES     
     737 H6         -63.4870   -29.8631     3.5945 H6            1 RES     
     738 H6         -62.4676   -28.9147     2.5363 H6            1 RES     
     739 H6         -64.5550   -27.7261     3.1619 H6            1 RES     
     740 H6         -64.1554   -27.8479     4.9015 H6            1 RES     
     741 H6         -63.7205   -25.6023     4.0767 H6            1 RES     
     742 H6         -62.1731   -26.3688     4.5813 H6            1 RES     
     743 H6         -63.2224   -26.1292     1.6724 H6            1 RES     
     744 H6         -61.6415   -26.8575     2.1604 H6            1 RES     
     745 H6         -61.3344   -24.5391     1.3844 H6            1 RES     
     746 H6         -60.9209   -24.6849     3.1368 H6            1 RES     
     747 H6         -62.4935   -23.9388     2.6328 H6            1 RES     
     748 C0         -58.6417   -30.7524     8.2337 C0            1 RES     
     749 C0         -58.3465   -32.0878     7.3994 C0            1 RES     
     750 C0         -59.3029   -33.3143     7.5962 C0            1 RES     
     751 C0         -60.5782   -33.2629     6.7172 C0            1 RES     
     752 C0         -61.6028   -34.3843     6.9985 C0            1 RES     
     753 C0         -61.2085   -35.7384     6.4398 C0            1 RES     
     754 C0         -56.8755   -32.4728     7.7687 C0            1 RES     
     755 C0         -56.2716   -33.7511     7.1421 C0            1 RES     
     756 C0         -56.3396   -33.8397     5.6067 C0            1 RES     
     757 C0         -55.6305   -32.7074     4.8477 C0            1 RES     
     758 C0         -54.1298   -32.6217     5.1596 C0            1 RES     
     759 C0         -53.4558   -31.5571     4.2997 C0            1 RES     
     760 H6         -58.4030   -30.9467     9.3034 H6            1 RES     
     761 H6         -57.8696   -30.0418     7.8620 H6            1 RES     
     762 H6         -58.3397   -31.8595     6.3117 H6            1 RES     
     763 H6         -59.4947   -33.4438     8.6791 H6            1 RES     
     764 H6         -58.8268   -34.2439     7.2488 H6            1 RES     
     765 H6         -61.0951   -32.3372     6.9198 H6            1 RES     
     766 H6         -60.3251   -33.2359     5.6362 H6            1 RES     
     767 H6         -62.5712   -34.0997     6.5312 H6            1 RES     
     768 H6         -61.7831   -34.4952     8.0827 H6            1 RES     
     769 H6         -61.1278   -35.6715     5.3351 H6            1 RES     
     770 H6         -60.2520   -36.0873     6.8751 H6            1 RES     
     771 H6         -62.0060   -36.4707     6.6934 H6            1 RES     
     772 H6         -56.2167   -31.6219     7.4885 H6            1 RES     
     773 H6         -56.7983   -32.6015     8.8707 H6            1 RES     
     774 H6         -56.7700   -34.6480     7.5623 H6            1 RES     
     775 H6         -55.2151   -33.8312     7.4736 H6            1 RES     
     776 H6         -55.8841   -34.8078     5.3017 H6            1 RES     
     777 H6         -57.4033   -33.8632     5.2880 H6            1 RES     
     778 H6         -55.7576   -32.9110     3.7614 H6            1 RES     
     779 H6         -56.1181   -31.7350     5.0722 H6            1 RES     
     780 H6         -53.6459   -33.6019     4.9571 H6            1 RES     
     781 H6         -53.9771   -32.3583     6.2273 H6            1 RES     
     782 H6         -52.3753   -31.5054     4.5497 H6            1 RES     
     783 H6         -53.9144   -30.5626     4.4855 H6            1 RES     
     784 H6         -53.5592   -31.8119     3.2231 H6            1 RES     
     785 C0         -65.1432   -40.6884     9.0225 C0            1 RES     
     786 C1         -65.9404   -41.4771    10.0829 C1            1 RES     
     787 C1         -66.5484   -40.6559    10.9879 C1            1 RES     
     788 S2         -67.5133   -41.4995    12.1076 S2            1 RES     
     789 C1         -67.0461   -43.0103    11.4669 C1            1 RES     
     790 C1         -66.1964   -42.7990    10.3891 C1            1 RES     
     791 C1         -66.1530   -39.3067    10.7102 C1            1 RES     
     792 C1         -65.3692   -39.3076     9.6531 C1            1 RES     
     793 C1         -64.7730   -38.0070     9.3931 C1            1 RES     
     794 C1         -65.1423   -37.1132    10.3889 C1            1 RES     
     795 S2         -66.3522   -37.7586    11.5732 S2            1 RES     
     796 H3         -65.8405   -43.6225     9.8719 H3            1 RES     
     797 H3         -64.0280   -37.8068     8.6347 H3            1 RES     
     798 C0         -68.3192   -52.2422    10.5522 C0            1 RES     
     799 C1         -69.1192   -53.0065    11.6250 C1            1 RES     
     800 C1         -69.7538   -52.2042    12.5285 C1            1 RES     
     801 S2         -70.6858   -53.0667    13.6666 S2            1 RES     
     802 C1         -70.1536   -54.5561    13.0227 C1            1 RES     
     803 C1         -69.3379   -54.3216    11.9298 C1            1 RES     
     804 C1         -69.3819   -50.8634    12.2385 C1            1 RES     
     805 C1         -68.5227   -50.8508    11.1778 C1            1 RES     
     806 C1         -67.9802   -49.5828    10.9409 C1            1 RES     
     807 C1         -68.4888   -48.6240    11.8383 C1            1 RES     
     808 S2         -69.6065   -49.3508    12.9085 S2            1 RES     
     809 H3         -68.9549   -55.1296    11.4136 H3            1 RES     
     810 H3         -67.2565   -49.3729    10.1580 H3            1 RES     
     811 C1         -66.7912   -46.7708    11.7539 C1            1 RES     
     812 F4         -65.7839   -47.6811    11.6764 F4            1 RES     
     813 C1         -66.4753   -45.4149    11.7005 C1            1 RES     
     814 C1         -67.4629   -44.4074    11.7662 C1            1 RES     
     815 C1         -68.7942   -44.8182    11.9495 C1            1 RES     
     816 N5         -69.8521   -43.9602    11.9786 N5            1 RES     
     817 S2         -71.1387   -44.9908    12.0597 S2            1 RES     
     818 N5         -70.4515   -46.5003    12.0584 N5            1 RES     
     819 C1         -69.1215   -46.1991    11.9831 C1            1 RES     
     820 C1         -68.1254   -47.1863    11.8704 C1            1 RES     
     821 H3         -65.4313   -45.1340    11.5907 H3            1 RES     
     822 C1         -71.7456   -56.5167    13.3557 C1            1 RES     
     823 F4         -72.8365   -55.7194    13.3139 F4            1 RES     
     824 C1         -71.9302   -57.9148    13.3422 C1            1 RES     
     825 C1         -70.8362   -58.7933    13.3445 C1            1 RES     
     826 C1         -69.5504   -58.2692    13.3906 C1            1 RES     
     827 N5         -68.4275   -59.0323    13.4158 N5            1 RES     
     828 S2         -67.2293   -57.8942    13.4350 S2            1 RES     
     829 N5         -68.0515   -56.4649    13.3952 N5            1 RES     
     830 C1         -69.3513   -56.8668    13.3749 C1            1 RES     
     831 C1         -70.4437   -55.9778    13.3217 C1            1 RES     
     832 H3         -72.9313   -58.3244    13.2975 H3            1 RES     
     833 C0         -65.5817   -40.6949     7.4861 C0            1 RES     
     834 C0         -67.0297   -40.6717     6.8184 C0            1 RES     
     835 C0         -67.9302   -41.8875     7.1967 C0            1 RES     
     836 C0         -68.7873   -41.6195     8.4318 C0            1 RES     
     837 C0         -69.4781   -42.8766     8.9630 C0            1 RES     
     838 C0         -70.6274   -43.3747     8.0970 C0            1 RES     
     839 C0         -66.7815   -40.6639     5.2622 C0            1 RES     
     840 C0         -67.9921   -40.8669     4.3099 C0            1 RES     
     841 C0         -69.1951   -39.9396     4.5417 C0            1 RES     
     842 C0         -68.9008   -38.4448     4.3904 C0            1 RES     
     843 C0         -68.4145   -38.0820     2.9711 C0            1 RES     
     844 C0         -68.2030   -36.5785     2.8368 C0            1 RES     
     845 H6         -65.1061   -41.5673     7.0270 H6            1 RES     
     846 H6         -65.0244   -39.8406     7.0385 H6            1 RES     
     847 H6         -67.5813   -39.7350     7.0545 H6            1 RES     
     848 H6         -67.3182   -42.8036     7.2672 H6            1 RES     
     849 H6         -68.6965   -42.0955     6.4369 H6            1 RES     
     850 H6         -68.1644   -41.2384     9.2208 H6            1 RES     
     851 H6         -69.5286   -40.8156     8.2319 H6            1 RES     
     852 H6         -69.9074   -42.6111     9.9450 H6            1 RES     
     853 H6         -68.7258   -43.6862     9.1010 H6            1 RES     
     854 H6         -71.4094   -42.5886     8.0327 H6            1 RES     
     855 H6         -70.2876   -43.6510     7.0794 H6            1 RES     
     856 H6         -71.0715   -44.2729     8.5777 H6            1 RES     
     857 H6         -66.2878   -39.7020     5.0030 H6            1 RES     
     858 H6         -66.0717   -41.4780     4.9945 H6            1 RES     
     859 H6         -68.3473   -41.9157     4.3770 H6            1 RES     
     860 H6         -67.6333   -40.7716     3.2631 H6            1 RES     
     861 H6         -69.9930   -40.2211     3.8210 H6            1 RES     
     862 H6         -69.6003   -40.1105     5.5607 H6            1 RES     
     863 H6         -69.8351   -37.8892     4.5902 H6            1 RES     
     864 H6         -68.1425   -38.1287     5.1334 H6            1 RES     
     865 H6         -69.1735   -38.3999     2.2189 H6            1 RES     
     866 H6         -67.4490   -38.5884     2.7530 H6            1 RES     
     867 H6         -67.8496   -36.3412     1.8127 H6            1 RES     
     868 H6         -67.4478   -36.2357     3.5681 H6            1 RES     
     869 H6         -69.1611   -36.0449     3.0173 H6            1 RES     
     870 C0         -63.6029   -41.0056     9.1189 C0            1 RES     
     871 C0         -62.8574   -42.2126     8.3933 C0            1 RES     
     872 C0         -63.3706   -43.6605     8.6936 C0            1 RES     
     873 C0         -64.5715   -44.0875     7.8161 C0            1 RES     
     874 C0         -65.1690   -45.4624     8.1892 C0            1 RES     
     875 C0         -64.3593   -46.6435     7.6946 C0            1 RES     
     876 C0         -61.3521   -42.0531     8.7930 C0            1 RES     
     877 C0         -60.3458   -43.1055     8.2759 C0            1 RES     
     878 C0         -60.3395   -43.3328     6.7531 C0            1 RES     
     879 C0         -59.9959   -42.0999     5.9020 C0            1 RES     
     880 C0         -58.5984   -41.5365     6.1979 C0            1 RES     
     881 C0         -58.2643   -40.3845     5.2551 C0            1 RES     
     882 H6         -63.3523   -41.0363    10.2029 H6            1 RES     
     883 H6         -63.0944   -40.1058     8.7040 H6            1 RES     
     884 H6         -62.8967   -42.0758     7.2912 H6            1 RES     
     885 H6         -63.5547   -43.7584     9.7841 H6            1 RES     
     886 H6         -62.6090   -44.4083     8.4230 H6            1 RES     
     887 H6         -65.3660   -43.3662     7.9474 H6            1 RES     
     888 H6         -64.3213   -44.0557     6.7346 H6            1 RES     
     889 H6         -66.1826   -45.5378     7.7379 H6            1 RES     
     890 H6         -65.2811   -45.5643     9.2838 H6            1 RES     
     891 H6         -64.3173   -46.6212     6.5862 H6            1 RES     
     892 H6         -63.3369   -46.6319     8.1200 H6            1 RES     
     893 H6         -64.8715   -47.5775     8.0136 H6            1 RES     
     894 H6         -61.0047   -41.0568     8.4398 H6            1 RES     
     895 H6         -61.2649   -42.0572     9.9018 H6            1 RES     
     896 H6         -60.5395   -44.0786     8.7702 H6            1 RES     
     897 H6         -59.3305   -42.8101     8.6145 H6            1 RES     
     898 H6         -59.5968   -44.1305     6.5313 H6            1 RES     
     899 H6         -61.3335   -43.7132     6.4366 H6            1 RES     
     900 H6         -60.0313   -42.4172     4.8361 H6            1 RES     
     901 H6         -60.7618   -41.3094     6.0488 H6            1 RES     
     902 H6         -57.8354   -42.3348     6.0681 H6            1 RES     
     903 H6         -58.5516   -41.1596     7.2410 H6            1 RES     
     904 H6         -57.2545   -39.9890     5.4935 H6            1 RES     
     905 H6         -59.0054   -39.5651     5.3688 H6            1 RES     
     906 H6         -58.2676   -40.7369     4.2014 H6            1 RES     
     907 C0         -68.7932   -52.2809     9.0258 C0            1 RES     
     908 C0         -70.2558   -52.2997     8.3705 C0            1 RES     
     909 C0         -71.1453   -53.5259     8.7588 C0            1 RES     
     910 C0         -71.9847   -53.2837    10.0106 C0            1 RES     
     911 C0         -72.6455   -54.5534    10.5509 C0            1 RES     
     912 C0         -73.8067   -55.0767     9.7158 C0            1 RES     
     913 C0         -70.0160   -52.3071     6.8123 C0            1 RES     
     914 C0         -71.2232   -52.5445     5.8647 C0            1 RES     
     915 C0         -72.4400   -51.6276     6.0784 C0            1 RES     
     916 C0         -72.1562   -50.1317     5.9045 C0            1 RES     
     917 C0         -71.6687   -49.7796     4.4925 C0            1 RES     
     918 C0         -71.4610   -48.2777     4.3525 C0            1 RES     
     919 H6         -68.3092   -53.1506     8.5726 H6            1 RES     
     920 H6         -68.2562   -51.4272     8.5560 H6            1 RES     
     921 H6         -70.8212   -51.3703     8.6014 H6            1 RES     
     922 H6         -70.5357   -54.4423     8.8025 H6            1 RES     
     923 H6         -71.9270   -53.7303     8.0130 H6            1 RES     
     924 H6         -71.3535   -52.9048    10.7898 H6            1 RES     
     925 H6         -72.7401   -52.4884     9.8331 H6            1 RES     
     926 H6         -73.0615   -54.2883    11.5394 H6            1 RES     
     927 H6         -71.8777   -55.3497    10.6741 H6            1 RES     
     928 H6         -74.6062   -54.3078     9.6690 H6            1 RES     
     929 H6         -73.4861   -55.3532     8.6923 H6            1 RES     
     930 H6         -74.2214   -55.9809    10.2135 H6            1 RES     
     931 H6         -69.5365   -51.3452     6.5373 H6            1 RES     
     932 H6         -69.2986   -53.1183     6.5545 H6            1 RES     
     933 H6         -71.5694   -53.5944     5.9482 H6            1 RES     
     934 H6         -70.8669   -52.4604     4.8171 H6            1 RES     
     935 H6         -73.2308   -51.9265     5.3544 H6            1 RES     
     936 H6         -72.8503   -51.7901     7.0971 H6            1 RES     
     937 H6         -73.1062   -49.5872     6.1001 H6            1 RES     
     938 H6         -71.4096   -49.8022     6.6584 H6            1 RES     
     939 H6         -72.4196   -50.1132     3.7424 H6            1 RES     
     940 H6         -70.7024   -50.2829     4.2813 H6            1 RES     
     941 H6         -71.1032   -48.0466     3.3275 H6            1 RES     
     942 H6         -70.7024   -47.9277     5.0848 H6            1 RES     
     943 H6         -72.4168   -47.7398     4.5287 H6            1 RES     
     944 C0         -66.7845   -52.6064    10.6298 C0            1 RES     
     945 C0         -66.0769   -53.8449     9.9005 C0            1 RES     
     946 C0         -66.6160   -55.2875    10.1941 C0            1 RES     
     947 C0         -67.8268   -55.6954     9.3169 C0            1 RES     
     948 C0         -68.4647   -57.0530     9.6868 C0            1 RES     
     949 C0         -67.6630   -58.2584     9.2334 C0            1 RES     
     950 C0         -64.5670   -53.7315    10.2947 C0            1 RES     
     951 C0         -63.5875   -54.8057     9.7673 C0            1 RES     
     952 C0         -63.5925   -55.0249     8.2435 C0            1 RES     
     953 C0         -63.2480   -53.7893     7.3974 C0            1 RES     
     954 C0         -61.8525   -53.2243     7.6979 C0            1 RES     
     955 C0         -61.5186   -52.0714     6.7566 C0            1 RES     
     956 H6         -66.5206   -52.6380    11.7108 H6            1 RES     
     957 H6         -66.2592   -51.7228    10.2024 H6            1 RES     
     958 H6         -66.1172   -53.7072     8.7985 H6            1 RES     
     959 H6         -66.7819   -55.3887    11.2842 H6            1 RES     
     960 H6         -65.8709   -56.0494     9.9184 H6            1 RES     
     961 H6         -68.6063   -54.9607     9.4487 H6            1 RES     
     962 H6         -67.5712   -55.6726     8.2365 H6            1 RES     
     963 H6         -69.4635   -57.1149     9.2013 H6            1 RES     
     964 H6         -68.6254   -57.1328    10.7767 H6            1 RES     
     965 H6         -67.5831   -58.2523     8.1266 H6            1 RES     
     966 H6         -66.6552   -58.2636     9.6919 H6            1 RES     
     967 H6         -68.2032   -59.1791     9.5449 H6            1 RES     
     968 H6         -64.1944   -52.7427     9.9479 H6            1 RES     
     969 H6         -64.4776   -53.7479    11.4032 H6            1 RES     
     970 H6         -63.7963   -55.7784    10.2569 H6            1 RES     
     971 H6         -62.5646   -54.5329    10.1013 H6            1 RES     
     972 H6         -62.8561   -55.8263     8.0132 H6            1 RES     
     973 H6         -64.5908   -55.3972     7.9304 H6            1 RES     
     974 H6         -63.2834   -54.1023     6.3304 H6            1 RES     
     975 H6         -64.0145   -52.9995     7.5473 H6            1 RES     
     976 H6         -61.0876   -54.0210     7.5706 H6            1 RES     
     977 H6         -61.8105   -52.8481     8.7418 H6            1 RES     
     978 H6         -60.5114   -51.6722     6.9991 H6            1 RES     
     979 H6         -62.2634   -51.2546     6.8661 H6            1 RES     
     980 H6         -61.5161   -52.4249     5.7032 H6            1 RES     
     981 C0         -69.9477   -63.9704    12.2012 C0            1 RES     
     982 C1         -70.4876   -64.8845    13.3215 C1            1 RES     
     983 C1         -71.3369   -64.2245    14.1618 C1            1 RES     
     984 S2         -72.0209   -65.2378    15.3459 S2            1 RES     
     985 C1         -71.1001   -66.5756    14.8228 C1            1 RES     
     986 C1         -70.3331   -66.1945    13.7297 C1            1 RES     
     987 C1         -71.3677   -62.8437    13.7797 C1            1 RES     
     988 C1         -70.5989   -62.6827    12.7237 C1            1 RES     
     989 C1         -70.4241   -61.2850    12.3625 C1            1 RES     
     990 C1         -71.0703   -60.4761    13.2871 C1            1 RES     
     991 S2         -72.0495   -61.3717    14.5208 S2            1 RES     
     992 H3         -69.7313   -66.9052    13.2768 H3            1 RES     
     993 H3         -69.7601   -60.9228    11.5889 H3            1 RES     
     994 C0         -69.4664   -75.7940    14.6279 C0            1 RES     
     995 C1         -70.0167   -76.6848    15.7587 C1            1 RES     
     996 C1         -70.8855   -76.0511    16.5991 C1            1 RES     
     997 S2         -71.5328   -77.0708    17.8028 S2            1 RES     
     998 C1         -70.5566   -78.3686    17.2747 C1            1 RES     
     999 C1         -69.8288   -77.9771    16.1648 C1            1 RES     
    1000 C1         -70.9358   -74.6863    16.2053 C1            1 RES     
    1001 C1         -70.0993   -74.4897    15.1446 C1            1 RES     
    1002 C1         -69.9661   -73.1377    14.8090 C1            1 RES     
    1003 C1         -70.7628   -72.3172    15.6308 C1            1 RES     
    1004 S2         -71.6268   -73.2701    16.7569 S2            1 RES     
    1005 H3         -69.2059   -78.6646    15.7117 H3            1 RES     
    1006 H3         -69.3248   -72.7747    14.0103 H3            1 RES     
    1007 C1         -69.7126   -70.0442    15.3991 C1            1 RES     
    1008 F4         -68.4735   -70.6046    15.3896 F4            1 RES     
    1009 C1         -69.8257   -68.6647    15.2401 C1            1 RES     
    1010 C1         -71.0755   -68.0068    15.2303 C1            1 RES     
    1011 C1         -72.2208   -68.7915    15.4482 C1            1 RES     
    1012 N5         -73.4909   -68.2999    15.4135 N5            1 RES     
    1013 S2         -74.4016   -69.6664    15.5773 S2            1 RES     
    1014 N5         -73.2856   -70.8880    15.6910 N5            1 RES     
    1015 C1         -72.1103   -70.1997    15.5893 C1            1 RES     
    1016 C1         -70.8577   -70.8391    15.5508 C1            1 RES     
    1017 H3         -68.9158   -68.0859    15.1063 H3            1 RES     
    1018 C1         -71.4788   -80.6926    17.7624 C1            1 RES     
    1019 F4         -72.7602   -80.2739    17.6619 F4            1 RES     
    1020 C1         -71.2263   -82.0769    17.8575 C1            1 RES     
    1021 C1         -69.9162   -82.5746    17.9249 C1            1 RES     
    1022 C1         -68.8538   -81.6793    17.9270 C1            1 RES     
    1023 N5         -67.5520   -82.0570    18.0083 N5            1 RES     
    1024 S2         -66.7604   -80.6080    17.9364 S2            1 RES     
    1025 N5         -67.9796   -79.5071    17.7883 N5            1 RES     
    1026 C1         -69.0933   -80.2887    17.8025 C1            1 RES     
    1027 C1         -70.4039   -79.7843    17.6835 C1            1 RES     
    1028 H3         -72.0528   -82.7760    17.8472 H3            1 RES     
    1029 C0         -70.3303   -64.2254    10.6711 C0            1 RES     
    1030 C0         -71.7014   -64.6974    10.0073 C0            1 RES     
    1031 C0         -72.1943   -66.0991    10.4808 C0            1 RES     
    1032 C0         -73.1184   -66.0160    11.6936 C0            1 RES     
    1033 C0         -73.4024   -67.3812    12.3222 C0            1 RES     
    1034 C0         -74.3254   -68.2708    11.5003 C0            1 RES     
    1035 C0         -71.4344   -64.7295     8.4545 C0            1 RES     
    1036 C0         -72.5041   -65.3644     7.5239 C0            1 RES     
    1037 C0         -73.9379   -64.8364     7.6863 C0            1 RES     
    1038 C0         -74.1121   -63.3390     7.4192 C0            1 RES     
    1039 C0         -73.7301   -62.9512     5.9748 C0            1 RES     
    1040 C0         -73.9862   -61.4697     5.7241 C0            1 RES     
    1041 H6         -69.6008   -64.9414    10.2796 H6            1 RES     
    1042 H6         -70.0518   -63.2771    10.1574 H6            1 RES     
    1043 H6         -72.5181   -63.9602    10.1716 H6            1 RES     
    1044 H6         -71.3329   -66.7753    10.6204 H6            1 RES     
    1045 H6         -72.8438   -66.5881     9.7413 H6            1 RES     
    1046 H6         -72.6590   -65.4045    12.4493 H6            1 RES     
    1047 H6         -74.0658   -65.4955    11.4341 H6            1 RES     
    1048 H6         -73.9131   -67.1880    13.2819 H6            1 RES     
    1049 H6         -72.4415   -67.9082    12.5205 H6            1 RES     
    1050 H6         -75.3089   -67.7697    11.3774 H6            1 RES     
    1051 H6         -73.8956   -68.5044    10.5062 H6            1 RES     
    1052 H6         -74.4833   -69.2236    12.0502 H6            1 RES     
    1053 H6         -71.2533   -63.6846     8.1205 H6            1 RES     
    1054 H6         -70.5039   -65.3042     8.2488 H6            1 RES     
    1055 H6         -72.5226   -66.4636     7.6728 H6            1 RES     
    1056 H6         -72.1695   -65.2418     6.4719 H6            1 RES     
    1057 H6         -74.5958   -65.4020     6.9916 H6            1 RES     
    1058 H6         -74.2929   -65.0472     8.7165 H6            1 RES     
    1059 H6         -75.1757   -63.0837     7.5778 H6            1 RES     
    1060 H6         -73.5030   -62.7511     8.1336 H6            1 RES     
    1061 H6         -74.3391   -63.5417     5.2514 H6            1 RES     
    1062 H6         -72.6515   -63.1517     5.7940 H6            1 RES     
    1063 H6         -73.7007   -61.2122     4.6838 H6            1 RES     
    1064 H6         -73.3880   -60.8583     6.4247 H6            1 RES     
    1065 H6         -75.0653   -61.2439     5.8653 H6            1 RES     
    1066 C0         -68.3867   -63.7915    12.3180 C0            1 RES     
    1067 C0         -67.2922   -64.7621    11.6860 C0            1 RES     
    1068 C0         -67.3439   -66.2710    12.0987 C0            1 RES     
    1069 C0         -68.3374   -67.1100    11.2599 C0            1 RES     
    1070 C0         -68.4931   -68.5701    11.7397 C0            1 RES     
    1071 C0         -67.3504   -69.4792    11.3358 C0            1 RES     
    1072 C0         -65.9168   -64.1191    12.0683 C0            1 RES     
    1073 C0         -64.6259   -64.8474    11.6316 C0            1 RES     
    1074 C0         -64.5179   -65.1744    10.1309 C0            1 RES     
    1075 C0         -64.5501   -63.9625     9.1861 C0            1 RES     
    1076 C0         -63.3988   -62.9770     9.4339 C0            1 RES     
    1077 C0         -63.4134   -61.8516     8.4040 C0            1 RES     
    1078 H6         -68.1619   -63.6632    13.4004 H6            1 RES     
    1079 H6         -68.1693   -62.8126    11.8334 H6            1 RES     
    1080 H6         -67.3480   -64.7263    10.5767 H6            1 RES     
    1081 H6         -67.5123   -66.3393    13.1939 H6            1 RES     
    1082 H6         -66.3843   -66.7670    11.8847 H6            1 RES     
    1083 H6         -69.3172   -66.6595    11.3370 H6            1 RES     
    1084 H6         -68.0859   -67.0835    10.1785 H6            1 RES     
    1085 H6         -69.4251   -68.9862    11.2981 H6            1 RES     
    1086 H6         -68.5920   -68.6198    12.8391 H6            1 RES     
    1087 H6         -67.2937   -69.5275    10.2289 H6            1 RES     
    1088 H6         -66.3900   -69.1228    11.7565 H6            1 RES     
    1089 H6         -67.5588   -70.4988    11.7274 H6            1 RES     
    1090 H6         -65.8837   -63.0935    11.6382 H6            1 RES     
    1091 H6         -65.8562   -64.0138    13.1738 H6            1 RES     
    1092 H6         -64.5229   -65.7934    12.2001 H6            1 RES     
    1093 H6         -63.7573   -64.2304    11.9437 H6            1 RES     
    1094 H6         -63.5622   -65.7199     9.9695 H6            1 RES     
    1095 H6         -65.3408   -65.8639     9.8473 H6            1 RES     
    1096 H6         -64.4640   -64.3537     8.1480 H6            1 RES     
    1097 H6         -65.5243   -63.4365     9.2733 H6            1 RES     
    1098 H6         -62.4255   -63.5101     9.3644 H6            1 RES     
    1099 H6         -63.4919   -62.5275    10.4446 H6            1 RES     
    1100 H6         -62.5785   -61.1488     8.6086 H6            1 RES     
    1101 H6         -64.3720   -61.2931     8.4560 H6            1 RES     
    1102 H6         -63.2862   -62.2654     7.3808 H6            1 RES     
    1103 C0         -69.8732   -76.0897    13.1104 C0            1 RES     
    1104 C0         -71.2455   -76.6051    12.4622 C0            1 RES     
    1105 C0         -71.7250   -78.0125    12.9464 C0            1 RES     
    1106 C0         -72.6247   -77.9472    14.1779 C0            1 RES     
    1107 C0         -72.8766   -79.3145    14.8164 C0            1 RES     
    1108 C0         -73.8037   -80.2295    14.0273 C0            1 RES     
    1109 C0         -70.9818   -76.6543    10.9087 C0            1 RES     
    1110 C0         -72.0379   -77.3206     9.9853 C0            1 RES     
    1111 C0         -73.4813   -76.8080    10.1305 C0            1 RES     
    1112 C0         -73.6653   -75.3144     9.8408 C0            1 RES     
    1113 C0         -73.2791   -74.9358     8.4045 C0            1 RES     
    1114 C0         -73.5382   -73.4574     8.1483 C0            1 RES     
    1115 H6         -69.1367   -76.8001    12.7245 H6            1 RES     
    1116 H6         -69.6134   -75.1498    12.5745 H6            1 RES     
    1117 H6         -72.0730   -75.8795    12.6220 H6            1 RES     
    1118 H6         -70.8653   -78.6918    13.0594 H6            1 RES     
    1119 H6         -72.3905   -78.5018    12.2207 H6            1 RES     
    1120 H6         -72.1566   -77.3360    14.9239 H6            1 RES     
    1121 H6         -73.5833   -77.4376    13.9414 H6            1 RES     
    1122 H6         -73.3747   -79.1170    15.7825 H6            1 RES     
    1123 H6         -71.9046   -79.8253    14.9989 H6            1 RES     
    1124 H6         -74.7990   -79.7487    13.9232 H6            1 RES     
    1125 H6         -73.3922   -80.4696    13.0274 H6            1 RES     
    1126 H6         -73.9323   -81.1776    14.5945 H6            1 RES     
    1127 H6         -70.8141   -75.6150    10.5589 H6            1 RES     
    1128 H6         -70.0452   -77.2231    10.7125 H6            1 RES     
    1129 H6         -72.0479   -78.4167    10.1506 H6            1 RES     
    1130 H6         -71.7023   -77.2093     8.9335 H6            1 RES     
    1131 H6         -74.1270   -77.3881     9.4339 H6            1 RES     
    1132 H6         -73.8437   -77.0122    11.1599 H6            1 RES     
    1133 H6         -74.7403   -75.0748     9.9961 H6            1 RES     
    1134 H6         -73.0716   -74.7166    10.5651 H6            1 RES     
    1135 H6         -73.8756   -75.5385     7.6844 H6            1 RES     
    1136 H6         -72.2008   -75.1326     8.2304 H6            1 RES     
    1137 H6         -73.2465   -73.2046     7.1076 H6            1 RES     
    1138 H6         -72.9389   -72.8380     8.8494 H6            1 RES     
    1139 H6         -74.6163   -73.2272     8.2848 H6            1 RES     
    1140 C0         -67.8959   -75.6629    14.7296 C0            1 RES     
    1141 C0         -66.8278   -76.6752    14.0964 C0            1 RES     
    1142 C0         -66.9056   -78.1876    14.5021 C0            1 RES     
    1143 C0         -67.9144   -79.0114    13.6622 C0            1 RES     
    1144 C0         -68.1138   -80.4677    14.1376 C0            1 RES     
    1145 C0         -66.9722   -81.3992    13.7767 C0            1 RES     
    1146 C0         -65.4338   -76.0749    14.4768 C0            1 RES     
    1147 C0         -64.1616   -76.8329    14.0316 C0            1 RES     
    1148 C0         -64.0667   -77.1557    12.5293 C0            1 RES     
    1149 C0         -64.0990   -75.9406    11.5893 C0            1 RES     
    1150 C0         -62.9503   -74.9540    11.8416 C0            1 RES     
    1151 C0         -62.9653   -73.8276    10.8131 C0            1 RES     
    1152 H6         -67.6581   -75.5314    15.8091 H6            1 RES     
    1153 H6         -67.6573   -74.6951    14.2337 H6            1 RES     
    1154 H6         -66.8848   -76.6388    12.9871 H6            1 RES     
    1155 H6         -67.0557   -78.2534    15.5971 H6            1 RES     
    1156 H6         -65.9573   -78.7024    14.2842 H6            1 RES     
    1157 H6         -68.8841   -78.5436    13.7388 H6            1 RES     
    1158 H6         -67.6551   -78.9916    12.5825 H6            1 RES     
    1159 H6         -69.0352   -80.8690    13.6608 H6            1 RES     
    1160 H6         -68.2656   -80.5117    15.2308 H6            1 RES     
    1161 H6         -66.8744   -81.4512    12.6726 H6            1 RES     
    1162 H6         -66.0211   -81.0607    14.2317 H6            1 RES     
    1163 H6         -67.2112   -82.4154    14.1599 H6            1 RES     
    1164 H6         -65.3745   -75.0482    14.0536 H6            1 RES     
    1165 H6         -65.3673   -75.9806    15.5830 H6            1 RES     
    1166 H6         -64.0729   -77.7835    14.5954 H6            1 RES     
    1167 H6         -63.2786   -76.2353    14.3409 H6            1 RES     
    1168 H6         -63.1156   -77.7074    12.3598 H6            1 RES     
    1169 H6         -64.8963   -77.8386    12.2484 H6            1 RES     
    1170 H6         -64.0142   -76.3278    10.5498 H6            1 RES     
    1171 H6         -65.0735   -75.4152    11.6796 H6            1 RES     
    1172 H6         -61.9756   -75.4847    11.7744 H6            1 RES     
    1173 H6         -63.0477   -74.5065    12.8532 H6            1 RES     
    1174 H6         -62.1340   -73.1217    11.0214 H6            1 RES     
    1175 H6         -63.9266   -73.2729    10.8611 H6            1 RES     
    1176 H6         -62.8323   -74.2406     9.7902 H6            1 RES     
    1177 C0         -67.4614   -87.2993    17.1832 C0            1 RES     
    1178 C1         -67.7193   -88.2490    18.3721 C1            1 RES     
    1179 C1         -68.7476   -87.8208    19.1611 C1            1 RES     
    1180 S2         -69.1137   -88.9041    20.4217 S2            1 RES     
    1181 C1         -67.8166   -89.9298    20.0013 C1            1 RES     
    1182 C1         -67.1800   -89.4143    18.8800 C1            1 RES     
    1183 C1         -69.1914   -86.5485    18.6734 C1            1 RES     
    1184 C1         -68.4865   -86.2384    17.6062 C1            1 RES     
    1185 C1         -68.7402   -84.8855    17.1375 C1            1 RES     
    1186 C1         -69.6226   -84.2474    17.9984 C1            1 RES     
    1187 S2         -70.3068   -85.3059    19.3002 S2            1 RES     
    1188 H3         -66.3800   -89.9376    18.4819 H3            1 RES     
    1189 H3         -68.2027   -84.3956    16.3365 H3            1 RES     
    1190 C0         -63.4358   -98.1900    20.5157 C0            1 RES     
    1191 C1         -63.7110   -99.1200    21.7134 C1            1 RES     
    1192 C1         -64.7498   -98.7227    22.5044 C1            1 RES     
    1193 S2         -65.0793   -99.7993    23.7851 S2            1 RES     
    1194 C1         -63.7417  -100.7705    23.3565 C1            1 RES     
    1195 C1         -63.1452  -100.2583    22.2177 C1            1 RES     
    1196 C1         -65.2070   -97.4725    22.0064 C1            1 RES     
    1197 C1         -64.4485   -97.1081    20.9315 C1            1 RES     
    1198 C1         -64.7283   -95.8094    20.4920 C1            1 RES     
    1199 C1         -65.7553   -95.2141    21.2500 C1            1 RES     
    1200 S2         -66.3099   -96.2997    22.4486 S2            1 RES     
    1201 H3         -62.3323  -100.7532    21.8175 H3            1 RES     
    1202 H3         -64.2121   -95.3276    19.6661 H3            1 RES     
    1203 C1         -65.4465   -92.7524    20.8405 C1            1 RES     
    1204 F4         -64.0955   -92.9047    20.8712 F4            1 RES     
    1205 C1         -65.9731   -91.4900    20.5756 C1            1 RES     
    1206 C1         -67.3638   -91.2500    20.5182 C1            1 RES     
    1207 C1         -68.2183   -92.3298    20.7990 C1            1 RES     
    1208 N5         -69.5769   -92.2555    20.7297 N5            1 RES     
    1209 S2         -70.0289   -93.8195    21.0010 S2            1 RES     
    1210 N5         -68.5951   -94.6277    21.2060 N5            1 RES     
    1211 C1         -67.6851   -93.6215    21.0483 C1            1 RES     
    1212 C1         -66.2964   -93.8468    21.0561 C1            1 RES     
    1213 H3         -65.2814   -90.6716    20.3952 H3            1 RES     
    1214 C1         -63.9184  -103.2223    24.0247 C1            1 RES     
    1215 F4         -65.2640  -103.2257    23.8954 F4            1 RES     
    1216 C1         -63.2564  -104.4512    24.2259 C1            1 RES     
    1217 C1         -61.8586  -104.5165    24.3283 C1            1 RES     
    1218 C1         -61.1215  -103.3409    24.2585 C1            1 RES     
    1219 N5         -59.7687  -103.2938    24.3654 N5            1 RES     
    1220 S2         -59.4572  -101.6813    24.1796 S2            1 RES     
    1221 N5         -60.9514  -101.0218    23.9500 N5            1 RES     
    1222 C1         -61.7724  -102.1042    24.0274 C1            1 RES     
    1223 C1         -63.1717  -102.0366    23.8731 C1            1 RES     
    1224 H3         -63.8288  -105.3689    24.2718 H3            1 RES     
    1225 C0         -67.7149   -87.7724    15.6783 C0            1 RES     
    1226 C0         -68.8612   -88.6904    15.0565 C0            1 RES     
    1227 C0         -68.9114   -90.1364    15.6383 C0            1 RES     
    1228 C0         -69.8422   -90.2509    16.8434 C0            1 RES     
    1229 C0         -69.7080   -91.5866    17.5764 C0            1 RES     
    1230 C0         -70.2966   -92.7751    16.8280 C0            1 RES     
    1231 C0         -68.5642   -88.7544    13.5102 C0            1 RES     
    1232 C0         -69.3682   -89.7543    12.6342 C0            1 RES     
    1233 C0         -70.8979   -89.6812    12.7590 C0            1 RES     
    1234 C0         -71.5163   -88.3337    12.3773 C0            1 RES     
    1235 C0         -71.2408   -87.9559    10.9062 C0            1 RES     
    1236 C0         -71.9326   -86.6474    10.5424 C0            1 RES     
    1237 H6         -66.7931   -88.2571    15.3415 H6            1 RES     
    1238 H6         -67.7292   -86.8254    15.0921 H6            1 RES     
    1239 H6         -69.8677   -88.2293    15.1654 H6            1 RES     
    1240 H6         -67.8875   -90.5034    15.8275 H6            1 RES     
    1241 H6         -69.3641   -90.8547    14.9404 H6            1 RES     
    1242 H6         -69.6082   -89.4736    17.5483 H6            1 RES     
    1243 H6         -70.8977   -90.0670    16.5468 H6            1 RES     
    1244 H6         -70.2737   -91.4887    18.5195 H6            1 RES     
    1245 H6         -68.6363   -91.7772    17.8124 H6            1 RES     
    1246 H6         -71.3835   -92.6105    16.6693 H6            1 RES     
    1247 H6         -69.7949   -92.9389    15.8540 H6            1 RES     
    1248 H6         -70.1670   -93.6867    17.4504 H6            1 RES     
    1249 H6         -68.7046   -87.7323    13.0959 H6            1 RES     
    1250 H6         -67.4983   -89.0295    13.3472 H6            1 RES     
    1251 H6         -69.0524   -90.7919    12.8677 H6            1 RES     
    1252 H6         -69.0648   -89.6136    11.5751 H6            1 RES     
    1253 H6         -71.3362   -90.4714    12.1118 H6            1 RES     
    1254 H6         -71.1932   -89.9134    13.8033 H6            1 RES     
    1255 H6         -72.6101   -88.4060    12.5184 H6            1 RES     
    1256 H6         -71.1318   -87.5359    13.0425 H6            1 RES     
    1257 H6         -71.6242   -88.7569    10.2323 H6            1 RES     
    1258 H6         -70.1490   -87.8287    10.7388 H6            1 RES     
    1259 H6         -71.7175   -86.3929     9.4846 H6            1 RES     
    1260 H6         -71.5653   -85.8316    11.1921 H6            1 RES     
    1261 H6         -73.0317   -86.7538    10.6685 H6            1 RES     
    1262 C0         -66.0329   -86.6419    17.2817 C0            1 RES     
    1263 C0         -64.6807   -87.2740    16.7239 C0            1 RES     
    1264 C0         -64.2768   -88.6909    17.2522 C0            1 RES     
    1265 C0         -64.9477   -89.8542    16.4833 C0            1 RES     
    1266 C0         -64.6592   -91.2518    17.0750 C0            1 RES     
    1267 C0         -63.2848   -91.7938    16.7397 C0            1 RES     
    1268 C0         -63.5766   -86.2135    17.0518 C0            1 RES     
    1269 C0         -62.1158   -86.5409    16.6694 C0            1 RES     
    1270 C0         -61.8810   -86.9297    15.1983 C0            1 RES     
    1271 C0         -62.2624   -85.8599    14.1627 C0            1 RES     
    1272 C0         -61.4736   -84.5531    14.3306 C0            1 RES     
    1273 C0         -61.8101   -83.5664    13.2168 C0            1 RES     
    1274 H6         -65.8813   -86.3707    18.3504 H6            1 RES     
    1275 H6         -66.1153   -85.6824    16.7224 H6            1 RES     
    1276 H6         -64.7212   -87.3397    15.6154 H6            1 RES     
    1277 H6         -64.4395   -88.7260    18.3499 H6            1 RES     
    1278 H6         -63.2072   -88.8831    17.0748 H6            1 RES     
    1279 H6         -66.0198   -89.7217    16.5279 H6            1 RES     
    1280 H6         -64.6935   -89.8323    15.4025 H6            1 RES     
    1281 H6         -65.4095   -91.9654    16.6693 H6            1 RES     
    1282 H6         -64.7615   -91.2475    18.1752 H6            1 RES     
    1283 H6         -63.1924   -91.9046    15.6397 H6            1 RES     
    1284 H6         -62.4887   -91.1297    17.1291 H6            1 RES     
    1285 H6         -63.1793   -92.7961    17.2095 H6            1 RES     
    1286 H6         -63.8499   -85.2621    16.5436 H6            1 RES     
    1287 H6         -63.5748   -86.0127    18.1457 H6            1 RES     
    1288 H6         -61.7403   -87.3647    17.3091 H6            1 RES     
    1289 H6         -61.4846   -85.6658    16.9306 H6            1 RES     
    1290 H6         -60.8009   -87.1660    15.0771 H6            1 RES     
    1291 H6         -62.4470   -87.8575    14.9709 H6            1 RES     
    1292 H6         -62.0386   -86.2819    13.1577 H6            1 RES     
    1293 H6         -63.3524   -85.6532    14.2114 H6            1 RES     
    1294 H6         -60.3826   -84.7655    14.3000 H6            1 RES     
    1295 H6         -61.7213   -84.0801    15.3038 H6            1 RES     
    1296 H6         -61.2349   -82.6281    13.3642 H6            1 RES     
    1297 H6         -62.8945   -83.3267    13.2278 H6            1 RES     
    1298 H6         -61.5405   -83.9961    12.2283 H6            1 RES     
    1299 C0         -63.7001   -98.7082    19.0266 C0            1 RES     
    1300 C0         -64.8347   -99.6665    18.4237 C0            1 RES     
    1301 C0         -64.8705  -101.1131    19.0166 C0            1 RES     
    1302 C0         -65.7731  -101.2356    20.2416 C0            1 RES     
    1303 C0         -65.6078  -102.5627    20.9846 C0            1 RES     
    1304 C0         -66.1934  -103.7741    20.2709 C0            1 RES     
    1305 C0         -64.5355   -99.7479    16.8780 C0            1 RES     
    1306 C0         -65.3171  -100.7728    16.0116 C0            1 RES     
    1307 C0         -66.8508  -100.7186    16.1205 C0            1 RES     
    1308 C0         -67.4770   -99.3794    15.7166 C0            1 RES     
    1309 C0         -67.1947   -99.0085    14.2543 C0            1 RES     
    1310 C0         -67.8884   -97.7042    13.8852 C0            1 RES     
    1311 H6         -62.7735   -99.1850    18.6949 H6            1 RES     
    1312 H6         -63.7291   -97.7766    18.4190 H6            1 RES     
    1313 H6         -65.8477   -99.2201    18.5290 H6            1 RES     
    1314 H6         -63.8468  -101.4854    19.1795 H6            1 RES     
    1315 H6         -65.3387  -101.8356    18.3326 H6            1 RES     
    1316 H6         -65.5305  -100.4565    20.9369 H6            1 RES     
    1317 H6         -66.8364  -101.0638    19.9688 H6            1 RES     
    1318 H6         -66.1629  -102.4563    21.9338 H6            1 RES     
    1319 H6         -64.5303  -102.7356    21.2036 H6            1 RES     
    1320 H6         -67.2856  -103.6311    20.1326 H6            1 RES     
    1321 H6         -65.7069  -103.9500    19.2916 H6            1 RES     
    1322 H6         -66.0376  -104.6709    20.9101 H6            1 RES     
    1323 H6         -64.6866   -98.7363    16.4484 H6            1 RES     
    1324 H6         -63.4658  -100.0148    16.7240 H6            1 RES     
    1325 H6         -64.9946  -101.8036    16.2612 H6            1 RES     
    1326 H6         -65.0093  -100.6425    14.9535 H6            1 RES     
    1327 H6         -67.2730  -101.5189    15.4724 H6            1 RES     
    1328 H6         -67.1552  -100.9470    17.1634 H6            1 RES     
    1329 H6         -68.5768   -99.4703    15.8556 H6            1 RES     
    1330 H6         -67.1104   -98.5761    16.3909 H6            1 RES     
    1331 H6         -67.5626   -99.8169    13.5845 H6            1 RES     
    1332 H6         -66.1045   -98.8772    14.0932 H6            1 RES     
    1333 H6         -67.6660   -97.4523    12.8273 H6            1 RES     
    1334 H6         -67.5225   -96.8805    14.5348 H6            1 RES     
    1335 H6         -68.9878   -97.8064    14.0062 H6            1 RES     
    1336 C0         -61.9833   -97.5761    20.6029 C0            1 RES     
    1337 C0         -60.6435   -98.2560    20.0472 C0            1 RES     
    1338 C0         -60.2631   -99.6847    20.5687 C0            1 RES     
    1339 C0         -60.9532  -100.8384    19.7977 C0            1 RES     
    1340 C0         -60.7074  -102.2461    20.3848 C0            1 RES     
    1341 C0         -59.3280  -102.8065    20.0941 C0            1 RES     
    1342 C0         -59.5085   -97.2304    20.3764 C0            1 RES     
    1343 C0         -58.0562   -97.5924    19.9879 C0            1 RES     
    1344 C0         -57.8351   -97.9813    18.5148 C0            1 RES     
    1345 C0         -58.2177   -96.9082    17.4838 C0            1 RES     
    1346 C0         -57.4318   -95.6008    17.6561 C0            1 RES     
    1347 C0         -57.7690   -94.6131    16.5436 C0            1 RES     
    1348 H6         -61.8203   -97.2981    21.6684 H6            1 RES     
    1349 H6         -62.0420   -96.6215    20.0331 H6            1 RES     
    1350 H6         -60.6852   -98.3215    18.9386 H6            1 RES     
    1351 H6         -60.4092   -99.7118    21.6660 H6            1 RES     
    1352 H6         -59.1984   -99.8985    20.3889 H6            1 RES     
    1353 H6         -62.0210  -100.6864    19.8403 H6            1 RES     
    1354 H6         -60.6895  -100.8204    18.7191 H6            1 RES     
    1355 H6         -61.4513  -102.9450    19.9429 H6            1 RES     
    1356 H6         -60.8617  -102.2531    21.4785 H6            1 RES     
    1357 H6         -59.1955  -102.9080    18.9970 H6            1 RES     
    1358 H6         -58.5361  -102.1597    20.5191 H6            1 RES     
    1359 H6         -59.2526  -103.8155    20.5553 H6            1 RES     
    1360 H6         -59.7573   -96.2695    19.8750 H6            1 RES     
    1361 H6         -59.4977   -97.0383    21.4719 H6            1 RES     
    1362 H6         -57.6928   -98.4252    20.6233 H6            1 RES     
    1363 H6         -57.4053   -96.7314    20.2478 H6            1 RES     
    1364 H6         -56.7574   -98.2256    18.3861 H6            1 RES     
    1365 H6         -58.4096   -98.9048    18.2898 H6            1 RES     
    1366 H6         -57.9964   -97.3269    16.4772 H6            1 RES     
    1367 H6         -59.3079   -96.7020    17.5357 H6            1 RES     
    1368 H6         -56.3403   -95.8103    17.6276 H6            1 RES     
    1369 H6         -57.6830   -95.1309    18.6303 H6            1 RES     
    1370 H6         -57.1983   -93.6728    16.6946 H6            1 RES     
    1371 H6         -58.8547   -94.3782    16.5510 H6            1 RES     
    1372 H6         -57.4942   -95.0403    15.5554 H6            1 RES     
    1373 C0         -58.0602  -108.3015    23.9479 C0            1 RES     
    1374 C1         -58.0402  -109.1933    25.2074 C1            1 RES     
    1375 C1         -59.1668  -109.0439    25.9635 C1            1 RES     
    1376 S2         -59.2104  -110.0903    27.3051 S2            1 RES     
    1377 C1         -57.6530  -110.6969    26.9618 C1            1 RES     
    1378 C1         -57.1811  -110.0958    25.8024 C1            1 RES     
    1379 C1         -59.9683  -108.0091    25.3800 C1            1 RES     
    1380 C1         -59.3696  -107.5780    24.2902 C1            1 RES     
    1381 C1         -60.0152  -106.4069    23.7189 C1            1 RES     
    1382 C1         -61.0687  -106.0082    24.5302 C1            1 RES     
    1383 S2         -61.4235  -107.1257    25.9117 S2            1 RES     
    1384 H3         -56.2510  -110.3764    25.4439 H3            1 RES     
    1385 H3         -59.6365  -105.8367    22.8811 H3            1 RES     
    1386 C0         -50.9661  -117.1521    28.1023 C0            1 RES     
    1387 C1         -50.9688  -118.0299    29.3690 C1            1 RES     
    1388 C1         -52.0959  -117.9128    30.1296 C1            1 RES     
    1389 S2         -52.1073  -118.9402    31.4905 S2            1 RES     
    1390 C1         -50.5278  -119.4832    31.1349 C1            1 RES     
    1391 C1         -50.0926  -118.8988    29.9584 C1            1 RES     
    1392 C1         -52.9032  -116.9039    29.5376 C1            1 RES     
    1393 C1         -52.2699  -116.4054    28.4358 C1            1 RES     
    1394 C1         -52.9245  -115.2916    27.8979 C1            1 RES     
    1395 C1         -54.1002  -114.9855    28.6102 C1            1 RES     
    1396 S2         -54.3213  -116.0966    29.8906 S2            1 RES     
    1397 H3         -49.1589  -119.1488    29.5956 H3            1 RES     
    1398 H3         -52.5630  -114.7375    27.0359 H3            1 RES     
    1399 C1         -54.5512  -112.5855    28.0108 C1            1 RES     
    1400 F4         -53.2193  -112.3131    28.0497 F4            1 RES     
    1401 C1         -55.4331  -111.5689    27.6504 C1            1 RES     
    1402 C1         -56.8289  -111.7722    27.5781 C1            1 RES     
    1403 C1         -57.3177  -113.0380    27.9438 C1            1 RES     
    1404 N5         -58.6320  -113.3896    27.8725 N5            1 RES     
    1405 S2         -58.5892  -114.9920    28.2651 S2            1 RES     
    1406 N5         -56.9816  -115.3037    28.5282 N5            1 RES     
    1407 C1         -56.4201  -114.0815    28.2909 C1            1 RES     
    1408 C1         -55.0296  -113.8685    28.3126 C1            1 RES     
    1409 H3         -55.0214  -110.5936    27.4054 H3            1 RES     
    1410 C1         -49.9597  -121.8141    31.9912 C1            1 RES     
    1411 F4         -51.2366  -122.2399    31.8660 F4            1 RES     
    1412 C1         -48.9577  -122.7621    32.2851 C1            1 RES     
    1413 C1         -47.6095  -122.3875    32.3887 C1            1 RES     
    1414 C1         -47.2664  -121.0510    32.2263 C1            1 RES     
    1415 N5         -45.9955  -120.5833    32.3257 N5            1 RES     
    1416 S2         -46.1887  -118.9716    32.0150 S2            1 RES     
    1417 N5         -47.8078  -118.8214    31.7389 N5            1 RES     
    1418 C1         -48.2596  -120.0945    31.9019 C1            1 RES     
    1419 C1         -49.6088  -120.4712    31.7464 C1            1 RES     
    1420 H3         -49.2226  -123.8051    32.4033 H3            1 RES     
    1421 C0         -58.1246  -108.9402    22.4847 C0            1 RES     
    1422 C0         -58.9213  -110.2092    21.9387 C0            1 RES     
    1423 C0         -58.5388  -111.5533    22.6307 C0            1 RES     
    1424 C0         -59.4154  -111.8579    23.8434 C0            1 RES     
    1425 C0         -58.8943  -113.0296    24.6772 C0            1 RES     
    1426 C0         -59.0748  -114.3936    24.0245 C0            1 RES     
    1427 C0         -58.5861  -110.2938    20.4012 C0            1 RES     
    1428 C0         -59.0266  -111.5544    19.6073 C0            1 RES     
    1429 C0         -60.5075  -111.9451    19.7299 C0            1 RES     
    1430 C0         -61.5005  -110.8847    19.2468 C0            1 RES     
    1431 C0         -61.3225  -110.5511    17.7502 C0            1 RES     
    1432 C0         -62.3738  -109.5489    17.2880 C0            1 RES     
    1433 H6         -57.0917  -109.1423    22.1840 H6            1 RES     
    1434 H6         -58.4156  -108.0896    21.8271 H6            1 RES     
    1435 H6         -60.0227  -110.0724    22.0143 H6            1 RES     
    1436 H6         -57.4561  -111.5733    22.8452 H6            1 RES     
    1437 H6         -58.7350  -112.4257    21.9916 H6            1 RES     
    1438 H6         -59.4456  -110.9961    24.4855 H6            1 RES     
    1439 H6         -60.4699  -112.0294    23.5362 H6            1 RES     
    1440 H6         -59.4829  -113.0401    25.6114 H6            1 RES     
    1441 H6         -57.8211  -112.8641    24.9245 H6            1 RES     
    1442 H6         -60.1563  -114.5828    23.8563 H6            1 RES     
    1443 H6         -58.5265  -114.4675    23.0647 H6            1 RES     
    1444 H6         -58.6857  -115.1726    24.7152 H6            1 RES     
    1445 H6         -59.0238  -109.3979    19.9095 H6            1 RES     
    1446 H6         -57.4840  -110.2399    20.2573 H6            1 RES     
    1447 H6         -58.4134  -112.4246    19.9195 H6            1 RES     
    1448 H6         -58.7583  -111.4065    18.5396 H6            1 RES     
    1449 H6         -60.6690  -112.8775    19.1469 H6            1 RES     
    1450 H6         -60.7397  -112.1784    20.7898 H6            1 RES     
    1451 H6         -62.5224  -111.2784    19.3958 H6            1 RES     
    1452 H6         -61.3929  -109.9602    19.8473 H6            1 RES     
    1453 H6         -61.4279  -111.4789    17.1412 H6            1 RES     
    1454 H6         -60.3187  -110.1078    17.5706 H6            1 RES     
    1455 H6         -62.2244  -109.3201    16.2132 H6            1 RES     
    1456 H6         -62.2877  -108.6138    17.8718 H6            1 RES     
    1457 H6         -63.3900  -109.9777    17.4248 H6            1 RES     
    1458 C0         -56.9039  -107.2322    23.9916 C0            1 RES     
    1459 C0         -55.4115  -107.4585    23.4809 C0            1 RES     
    1460 C0         -54.6046  -108.6397    24.1161 C0            1 RES     
    1461 C0         -54.8707  -110.0066    23.4413 C0            1 RES     
    1462 C0         -54.1810  -111.2001    24.1385 C0            1 RES     
    1463 C0         -52.6998  -111.3176    23.8426 C0            1 RES     
    1464 C0         -54.6923  -106.0891    23.7230 C0            1 RES     
    1465 C0         -53.1936  -105.9800    23.3633 C0            1 RES     
    1466 C0         -52.8198  -106.3862    21.9261 C0            1 RES     
    1467 C0         -53.4883  -105.5652    20.8118 C0            1 RES     
    1468 C0         -53.1410  -104.0708    20.8762 C0            1 RES     
    1469 C0         -53.7396  -103.3206    19.6903 C0            1 RES     
    1470 H6         -56.8654  -106.8488    25.0358 H6            1 RES     
    1471 H6         -57.2641  -106.3886    23.3600 H6            1 RES     
    1472 H6         -55.4063  -107.6157    22.3809 H6            1 RES     
    1473 H6         -54.7721  -108.6412    25.2137 H6            1 RES     
    1474 H6         -53.5240  -108.5070    23.9514 H6            1 RES     
    1475 H6         -55.9326  -110.2064    23.4782 H6            1 RES     
    1476 H6         -54.6124  -109.9882    22.3613 H6            1 RES     
    1477 H6         -54.6679  -112.1376    23.7912 H6            1 RES     
    1478 H6         -54.3031  -111.1455    25.2354 H6            1 RES     
    1479 H6         -52.5545  -111.4762    22.7542 H6            1 RES     
    1480 H6         -52.1537  -110.4142    24.1774 H6            1 RES     
    1481 H6         -52.3026  -112.2013    24.3882 H6            1 RES     
    1482 H6         -55.2328  -105.3080    23.1434 H6            1 RES     
    1483 H6         -54.7753  -105.8166    24.7981 H6            1 RES     
    1484 H6         -52.5977  -106.5988    24.0639 H6            1 RES     
    1485 H6         -52.8663  -104.9364    23.5545 H6            1 RES     
    1486 H6         -51.7169  -106.2881    21.8208 H6            1 RES     
    1487 H6         -53.0696  -107.4572    21.7726 H6            1 RES     
    1488 H6         -53.1246  -105.9717    19.8420 H6            1 RES     
    1489 H6         -54.5900  -105.6999    20.8472 H6            1 RES     
    1490 H6         -52.0370  -103.9398    20.8593 H6            1 RES     
    1491 H6         -53.5423  -103.6255    21.8105 H6            1 RES     
    1492 H6         -53.4825  -102.2428    19.7632 H6            1 RES     
    1493 H6         -54.8453  -103.4251    19.6855 H6            1 RES     
    1494 H6         -53.3305  -103.7191    18.7373 H6            1 RES     
    1495 C0         -51.0273  -117.8357    26.6584 C0            1 RES     
    1496 C0         -51.8009  -119.1380    26.1343 C0            1 RES     
    1497 C0         -51.4048  -120.4775    26.8374 C0            1 RES     
    1498 C0         -52.2525  -120.7795    28.0705 C0            1 RES     
    1499 C0         -51.7048  -121.9327    28.9135 C0            1 RES     
    1500 C0         -51.8761  -123.3149    28.2971 C0            1 RES     
    1501 C0         -51.4584  -119.2384    24.5988 C0            1 RES     
    1502 C0         -51.8700  -120.5151    23.8163 C0            1 RES     
    1503 C0         -53.3487  -120.9261    23.9245 C0            1 RES     
    1504 C0         -54.3460  -119.8776    23.4199 C0            1 RES     
    1505 C0         -54.1597  -119.5478    21.9326 C0            1 RES     
    1506 C0         -55.2113  -118.5506    21.4655 C0            1 RES     
    1507 H6         -49.9923  -118.0285    26.3623 H6            1 RES     
    1508 H6         -51.3271  -117.0058    25.9807 H6            1 RES     
    1509 H6         -52.9040  -119.0174    26.2074 H6            1 RES     
    1510 H6         -50.3200  -120.5045    27.0260 H6            1 RES     
    1511 H6         -51.6147  -121.3575    26.2125 H6            1 RES     
    1512 H6         -52.2749  -119.9141    28.7029 H6            1 RES     
    1513 H6         -53.3113  -120.9630    27.7880 H6            1 RES     
    1514 H6         -52.2859  -121.9315    29.8531 H6            1 RES     
    1515 H6         -50.6310  -121.7499    29.1424 H6            1 RES     
    1516 H6         -52.9565  -123.5246    28.1509 H6            1 RES     
    1517 H6         -51.3383  -123.4054    27.3331 H6            1 RES     
    1518 H6         -51.4669  -124.0706    29.0034 H6            1 RES     
    1519 H6         -51.9026  -118.3568    24.0927 H6            1 RES     
    1520 H6         -50.3553  -119.1748    24.4631 H6            1 RES     
    1521 H6         -51.2528  -121.3757    24.1440 H6            1 RES     
    1522 H6         -51.5944  -120.3757    22.7504 H6            1 RES     
    1523 H6         -53.4917  -121.8633    23.3414 H6            1 RES     
    1524 H6         -53.5907  -121.1587    24.9828 H6            1 RES     
    1525 H6         -55.3679  -120.2910    23.5683 H6            1 RES     
    1526 H6         -54.2573  -118.9528    24.0291 H6            1 RES     
    1527 H6         -54.2482  -120.4776    21.3283 H6            1 RES     
    1528 H6         -53.1588  -119.1008    21.7590 H6            1 RES     
    1529 H6         -55.0542  -118.3220    20.3908 H6            1 RES     
    1530 H6         -55.1290  -117.6084    22.0485 H6            1 RES     
    1531 H6         -56.2290  -118.9759    21.5969 H6            1 RES     
    1532 C0         -49.7734  -116.1175    28.1380 C0            1 RES     
    1533 C0         -48.2782  -116.3928    27.6332 C0            1 RES     
    1534 C0         -47.4900  -117.5930    28.2627 C0            1 RES     
    1535 C0         -47.7773  -118.9568    27.5849 C0            1 RES     
    1536 C0         -47.1249  -120.1733    28.2785 C0            1 RES     
    1537 C0         -45.6343  -120.3034    28.0285 C0            1 RES     
    1538 C0         -47.5190  -115.0470    27.8792 C0            1 RES     
    1539 C0         -46.0176  -114.9737    27.5161 C0            1 RES     
    1540 C0         -45.6567  -115.3845    26.0770 C0            1 RES     
    1541 C0         -46.3275  -114.5603    24.9670 C0            1 RES     
    1542 C0         -45.9833  -113.0658    25.0357 C0            1 RES     
    1543 C0         -46.5829  -112.3149    23.8510 C0            1 RES     
    1544 H6         -49.7260  -115.7244    29.1784 H6            1 RES     
    1545 H6         -50.1093  -115.2721    27.4963 H6            1 RES     
    1546 H6         -48.2743  -116.5502    26.5330 H6            1 RES     
    1547 H6         -47.6441  -117.5819    29.3591 H6            1 RES     
    1548 H6         -46.4074  -117.4825    28.0972 H6            1 RES     
    1549 H6         -48.8409  -119.1369    27.6184 H6            1 RES     
    1550 H6         -47.5088  -118.9390    26.5074 H6            1 RES     
    1551 H6         -47.6096  -121.0976    27.8938 H6            1 RES     
    1552 H6         -47.2929  -120.1459    29.3699 H6            1 RES     
    1553 H6         -45.4538  -120.4407    26.9422 H6            1 RES     
    1554 H6         -45.0877  -119.4151    28.4001 H6            1 RES     
    1555 H6         -45.2635  -121.2034    28.5661 H6            1 RES     
    1556 H6         -48.0392  -114.2489    27.3056 H6            1 RES     
    1557 H6         -47.5908  -114.7798    28.9565 H6            1 RES     
    1558 H6         -45.4304  -115.6052    28.2131 H6            1 RES     
    1559 H6         -45.6672  -113.9377    27.7070 H6            1 RES     
    1560 H6         -44.5535  -115.2951    25.9647 H6            1 RES     
    1561 H6         -45.9161  -116.4537    25.9255 H6            1 RES     
    1562 H6         -45.9672  -114.9646    23.9952 H6            1 RES     
    1563 H6         -47.4293  -114.6953    25.0056 H6            1 RES     
    1564 H6         -44.8797  -112.9318    25.0207 H6            1 RES     
    1565 H6         -46.3870  -112.6246    25.9712 H6            1 RES     
    1566 H6         -46.3308  -111.2363    23.9274 H6            1 RES     
    1567 H6         -47.6883  -112.4246    23.8430 H6            1 RES     
    1568 H6         -46.1695  -112.7094    22.8981 H6            1 RES     
    1569 C0         -42.8277  -124.8417    32.2924 C0            1 RES     
    1570 C1         -42.5625  -125.5881    33.6170 C1            1 RES     
    1571 C1         -43.6966  -125.7358    34.3622 C1            1 RES     
    1572 S2         -43.4464  -126.6423    35.7808 S2            1 RES     
    1573 C1         -41.7711  -126.7655    35.4815 C1            1 RES     
    1574 C1         -41.4813  -126.1365    34.2779 C1            1 RES     
    1575 C1         -44.7637  -125.0433    33.7024 C1            1 RES     
    1576 C1         -44.3027  -124.5315    32.5811 C1            1 RES     
    1577 C1         -45.2635  -123.6610    31.9226 C1            1 RES     
    1578 C1         -46.4054  -123.5455    32.7033 C1            1 RES     
    1579 S2         -46.4305  -124.6120    34.1680 S2            1 RES     
    1580 H3         -40.5025  -126.1442    33.9398 H3            1 RES     
    1581 H3         -45.0597  -123.0660    31.0422 H3            1 RES     
    1582 C0         -33.4551  -130.7539    37.1006 C0            1 RES     
    1583 C1         -33.2160  -131.4934    38.4314 C1            1 RES     
    1584 C1         -34.3408  -131.6716    39.1836 C1            1 RES     
    1585 S2         -34.0661  -132.5487    40.6199 S2            1 RES     
    1586 C1         -32.3890  -132.6058    40.3033 C1            1 RES     
    1587 C1         -32.1286  -132.0052    39.0840 C1            1 RES     
    1588 C1         -35.4053  -131.0060    38.5174 C1            1 RES     
    1589 C1         -34.9317  -130.4206    37.3787 C1            1 RES     
    1590 C1         -35.8842  -129.6047    36.7580 C1            1 RES     
    1591 C1         -37.1120  -129.6220    37.4475 C1            1 RES     
    1592 S2         -37.0096  -130.6489    38.8106 S2            1 RES     
    1593 H3         -31.1557  -131.9829    38.7392 H3            1 RES     
    1594 H3         -35.6914  -129.0321    35.8548 H3            1 RES     
    1595 C1         -38.2632  -127.5277    36.6654 C1            1 RES     
    1596 F4         -37.0798  -126.8577    36.6798 F4            1 RES     
    1597 C1         -39.4061  -126.8605    36.2298 C1            1 RES     
    1598 C1         -40.6708  -127.4871    36.1770 C1            1 RES     
    1599 C1         -40.7563  -128.8109    36.6407 C1            1 RES     
    1600 N5         -41.8980  -129.5531    36.6001 N5            1 RES     
    1601 S2         -41.3752  -131.0312    37.1154 S2            1 RES     
    1602 N5         -39.7553  -130.8141    37.3978 N5            1 RES     
    1603 C1         -39.5899  -129.4998    37.0651 C1            1 RES     
    1604 C1         -38.3322  -128.8695    37.0667 C1            1 RES     
    1605 H3         -39.3076  -125.8270    35.9090 H3            1 RES     
    1606 C1         -31.1531  -134.5794    41.3358 C1            1 RES     
    1607 F4         -32.2354  -135.3845    41.2472 F4            1 RES     
    1608 C1         -29.9155  -135.1496    41.6996 C1            1 RES     
    1609 C1         -28.7492  -134.3728    41.7704 C1            1 RES     
    1610 C1         -28.8283  -133.0115    41.5043 C1            1 RES     
    1611 N5         -27.7640  -132.1704    41.5640 N5            1 RES     
    1612 S2         -28.4346  -130.7234    41.1301 S2            1 RES     
    1613 N5         -30.0157  -131.0982    40.8473 N5            1 RES     
    1614 C1         -30.0594  -132.4328    41.1094 C1            1 RES     
    1615 C1         -31.2249  -133.2157    40.9870 C1            1 RES     
    1616 H3         -29.8508  -136.2117    41.8988 H3            1 RES     
    1617 C0         -42.6623  -125.5763    30.8832 C0            1 RES     
    1618 C0         -43.0205  -127.0655    30.4390 C0            1 RES     
    1619 C0         -42.2598  -128.1721    31.2318 C0            1 RES     
    1620 C0         -43.0266  -128.6398    32.4667 C0            1 RES     
    1621 C0         -42.1898  -129.5297    33.3873 C0            1 RES     
    1622 C0         -41.9302  -130.9279    32.8425 C0            1 RES     
    1623 C0         -42.6428  -127.1573    28.9118 C0            1 RES     
    1624 C0         -42.6593  -128.5477    28.2188 C0            1 RES     
    1625 C0         -43.9518  -129.3636    28.3751 C0            1 RES     
    1626 C0         -45.2111  -128.6981    27.8139 C0            1 RES     
    1627 C0         -45.1120  -128.4383    26.2956 C0            1 RES     
    1628 C0         -46.4095  -127.8442    25.7600 C0            1 RES     
    1629 H6         -41.6110  -125.4735    30.5964 H6            1 RES     
    1630 H6         -43.1856  -124.9075    30.1625 H6            1 RES     
    1631 H6         -44.1123  -127.2680    30.5065 H6            1 RES     
    1632 H6         -41.2277  -127.8429    31.4444 H6            1 RES     
    1633 H6         -42.1658  -129.1075    30.6627 H6            1 RES     
    1634 H6         -43.3329  -127.7837    33.0403 H6            1 RES     
    1635 H6         -43.9713  -129.1489    32.1764 H6            1 RES     
    1636 H6         -42.7667  -129.6508    34.3210 H6            1 RES     
    1637 H6         -41.2243  -129.0249    33.6182 H6            1 RES     
    1638 H6         -42.8980  -131.4517    32.6921 H6            1 RES     
    1639 H6         -41.3653  -130.9011    31.8899 H6            1 RES     
    1640 H6         -41.3361  -131.4962    33.5903 H6            1 RES     
    1641 H6         -43.3232  -126.4781    28.3534 H6            1 RES     
    1642 H6         -41.6073  -126.7787    28.7612 H6            1 RES     
    1643 H6         -41.8160  -129.1620    28.5958 H6            1 RES     
    1644 H6         -42.4265  -128.4045    27.1422 H6            1 RES     
    1645 H6         -43.8076  -130.3412    27.8663 H6            1 RES     
    1646 H6         -44.1239  -129.5774    29.4504 H6            1 RES     
    1647 H6         -46.0664  -129.3741    27.9956 H6            1 RES     
    1648 H6         -45.4045  -127.7432    28.3409 H6            1 RES     
    1649 H6         -44.9154  -129.3962    25.7604 H6            1 RES     
    1650 H6         -44.2885  -127.7230    26.0797 H6            1 RES     
    1651 H6         -46.3145  -127.6613    24.6703 H6            1 RES     
    1652 H6         -46.6263  -126.8871    26.2695 H6            1 RES     
    1653 H6         -47.2483  -128.5528    25.9321 H6            1 RES     
    1654 C0         -42.0554  -123.4690    32.2504 C0            1 RES     
    1655 C0         -40.5549  -123.2639    31.7548 C0            1 RES     
    1656 C0         -39.4389  -124.0899    32.4774 C0            1 RES     
    1657 C0         -39.2594  -125.5186    31.9110 C0            1 RES     
    1658 C0         -38.2524  -126.3876    32.6967 C0            1 RES     
    1659 C0         -36.8004  -126.0666    32.4070 C0            1 RES     
    1660 C0         -40.2947  -121.7258    31.8885 C0            1 RES     
    1661 C0         -38.8940  -121.1892    31.5176 C0            1 RES     
    1662 C0         -38.3833  -121.5668    30.1151 C0            1 RES     
    1663 C0         -39.2471  -121.0758    28.9424 C0            1 RES     
    1664 C0         -39.3754  -119.5465    28.8901 C0            1 RES     
    1665 C0         -40.1495  -119.1066    27.6513 C0            1 RES     
    1666 H6         -42.1584  -123.0158    33.2616 H6            1 RES     
    1667 H6         -42.6431  -122.8261    31.5563 H6            1 RES     
    1668 H6         -40.4784  -123.4933    30.6702 H6            1 RES     
    1669 H6         -39.6212  -124.0610    33.5722 H6            1 RES     
    1670 H6         -38.4475  -123.6446    32.3002 H6            1 RES     
    1671 H6         -40.2096  -126.0313    31.9660 H6            1 RES     
    1672 H6         -38.9962  -125.5023    30.8322 H6            1 RES     
    1673 H6         -38.4215  -127.4524    32.4241 H6            1 RES     
    1674 H6         -38.4087  -126.2917    33.7863 H6            1 RES     
    1675 H6         -36.5904  -126.2535    31.3337 H6            1 RES     
    1676 H6         -36.5643  -125.0170    32.6695 H6            1 RES     
    1677 H6         -36.1635  -126.7427    33.0183 H6            1 RES     
    1678 H6         -41.0359  -121.1936    31.2516 H6            1 RES     
    1679 H6         -40.4801  -121.4128    32.9395 H6            1 RES     
    1680 H6         -38.1524  -121.5414    32.2624 H6            1 RES     
    1681 H6         -38.9060  -120.0844    31.6267 H6            1 RES     
    1682 H6         -37.3614  -121.1432    29.9998 H6            1 RES     
    1683 H6         -38.2900  -122.6711    30.0456 H6            1 RES     
    1684 H6         -38.7559  -121.4222    28.0060 H6            1 RES     
    1685 H6         -40.2552  -121.5391    28.9910 H6            1 RES     
    1686 H6         -38.3644  -119.0847    28.8603 H6            1 RES     
    1687 H6         -39.9136  -119.1777    29.7882 H6            1 RES     
    1688 H6         -40.2363  -117.9996    27.6400 H6            1 RES     
    1689 H6         -41.1698  -119.5453    27.6575 H6            1 RES     
    1690 H6         -39.6178  -119.4301    26.7310 H6            1 RES     
    1691 C0         -33.2733  -131.5287    35.7141 C0            1 RES     
    1692 C0         -33.5999  -133.0407    35.2943 C0            1 RES     
    1693 C0         -32.8278  -134.1379    36.0978 C0            1 RES     
    1694 C0         -33.5684  -134.5928    37.3527 C0            1 RES     
    1695 C0         -32.7121  -135.4564    38.2810 C0            1 RES     
    1696 C0         -32.4389  -136.8662    37.7738 C0            1 RES     
    1697 C0         -33.2104  -133.1451    33.7702 C0            1 RES     
    1698 C0         -33.1947  -134.5411    33.0898 C0            1 RES     
    1699 C0         -34.4785  -135.3767    33.2333 C0            1 RES     
    1700 C0         -35.7380  -134.7254    32.6517 C0            1 RES     
    1701 C0         -35.6299  -134.4659    31.1429 C0            1 RES     
    1702 C0         -36.9261  -133.8771    30.6027 C0            1 RES     
    1703 H6         -32.2230  -131.4161    35.4311 H6            1 RES     
    1704 H6         -33.7983  -130.8837    34.9750 H6            1 RES     
    1705 H6         -34.6882  -133.2593    35.3606 H6            1 RES     
    1706 H6         -31.7911  -133.8166    36.2851 H6            1 RES     
    1707 H6         -32.7449  -135.0838    35.5434 H6            1 RES     
    1708 H6         -33.8681  -133.7316    37.9163 H6            1 RES     
    1709 H6         -34.5140  -135.1129    37.0880 H6            1 RES     
    1710 H6         -33.2855  -135.5636    39.2191 H6            1 RES     
    1711 H6         -31.7510  -134.9363    38.4923 H6            1 RES     
    1712 H6         -33.3999  -137.4076    37.6470 H6            1 RES     
    1713 H6         -31.8788  -136.8588    36.8183 H6            1 RES     
    1714 H6         -31.8332  -137.4051    38.5353 H6            1 RES     
    1715 H6         -33.8923  -132.4826    33.1986 H6            1 RES     
    1716 H6         -32.1771  -132.7565    33.6272 H6            1 RES     
    1717 H6         -32.3509  -135.1439    33.4816 H6            1 RES     
    1718 H6         -32.9524  -134.4035    32.0157 H6            1 RES     
    1719 H6         -34.3153  -136.3532    32.7248 H6            1 RES     
    1720 H6         -34.6602  -135.5929    34.3070 H6            1 RES     
    1721 H6         -36.5872  -135.4201    32.8343 H6            1 RES     
    1722 H6         -35.9496  -133.7753    33.1873 H6            1 RES     
    1723 H6         -35.4166  -135.4203    30.6125 H6            1 RES     
    1724 H6         -34.8105  -133.7476    30.9327 H6            1 RES     
    1725 H6         -36.8237  -133.6919    29.5131 H6            1 RES     
    1726 H6         -37.1486  -132.9145    31.1109 H6            1 RES     
    1727 H6         -37.7673  -134.5831    30.7692 H6            1 RES     
    1728 C0         -32.6374  -129.4036    37.0532 C0            1 RES     
    1729 C0         -31.1193  -129.2436    36.5673 C0            1 RES     
    1730 C0         -30.0152  -130.0937    37.2857 C0            1 RES     
    1731 C0         -29.8567  -131.5263    36.7162 C0            1 RES     
    1732 C0         -28.8781  -132.4289    37.5001 C0            1 RES     
    1733 C0         -27.4144  -132.1136    37.2571 C0            1 RES     
    1734 C0         -30.8140  -127.7154    36.7066 C0            1 RES     
    1735 C0         -29.3997  -127.2122    36.3351 C0            1 RES     
    1736 C0         -28.8998  -127.5983    34.9311 C0            1 RES     
    1737 C0         -29.7668  -127.1046    33.7625 C0            1 RES     
    1738 C0         -29.8982  -125.5759    33.7145 C0            1 RES     
    1739 C0         -30.6735  -125.1354    32.4768 C0            1 RES     
    1740 H6         -32.7348  -128.9387    38.0599 H6            1 RES     
    1741 H6         -33.2022  -128.7523    36.3488 H6            1 RES     
    1742 H6         -31.0440  -129.4736    35.4826 H6            1 RES     
    1743 H6         -30.1886  -130.0489    38.3784 H6            1 RES     
    1744 H6         -29.0151  -129.6690    37.1094 H6            1 RES     
    1745 H6         -30.8146  -132.0211    36.7662 H6            1 RES     
    1746 H6         -29.5836  -131.5072    35.6399 H6            1 RES     
    1747 H6         -29.0483  -133.4832    37.1893 H6            1 RES     
    1748 H6         -29.0696  -132.3733    38.5865 H6            1 RES     
    1749 H6         -27.1774  -132.2692    36.1842 H6            1 RES     
    1750 H6         -27.1739  -131.0754    37.5576 H6            1 RES     
    1751 H6         -26.7973  -132.8137    37.8618 H6            1 RES     
    1752 H6         -31.5412  -127.1604    36.0743 H6            1 RES     
    1753 H6         -30.9870  -127.4038    37.7602 H6            1 RES     
    1754 H6         -28.6624  -127.5793    37.0773 H6            1 RES     
    1755 H6         -29.3874  -126.1075    36.4444 H6            1 RES     
    1756 H6         -27.8748  -127.1833    34.8095 H6            1 RES     
    1757 H6         -28.8161  -128.7036    34.8634 H6            1 RES     
    1758 H6         -29.2795  -127.4500    32.8239 H6            1 RES     
    1759 H6         -30.7750  -127.5679    33.8142 H6            1 RES     
    1760 H6         -28.8885  -125.1112    33.6864 H6            1 RES     
    1761 H6         -30.4374  -125.2115    34.6141 H6            1 RES     
    1762 H6         -30.7653  -124.0290    32.4689 H6            1 RES     
    1763 H6         -31.6918  -125.5793    32.4801 H6            1 RES     
    1764 H6         -30.1390  -125.4538    31.5562 H6            1 RES     
    1765 C0         -23.4447  -135.2414    41.8520 C0            1 RES     
    1766 C1         -22.9921  -135.7698    43.2297 C1            1 RES     
    1767 C1         -24.0421  -136.2024    43.9869 C1            1 RES     
    1768 S2         -23.5568  -136.8802    45.4707 S2            1 RES     
    1769 C1         -21.9182  -136.5054    45.1776 C1            1 RES     
    1770 C1         -21.8092  -135.9092    43.9282 C1            1 RES     
    1771 C1         -25.2557  -135.9218    43.2784 C1            1 RES     
    1772 C1         -24.9497  -135.3782    42.1196 C1            1 RES     
    1773 C1         -26.1166  -134.8959    41.3982 C1            1 RES     
    1774 C1         -27.2554  -135.0788    42.1706 C1            1 RES     
    1775 S2         -26.9841  -135.9894    43.7134 S2            1 RES     
    1776 H3         -20.8682  -135.6413    43.5892 H3            1 RES     
    1777 H3         -26.0860  -134.3344    40.4740 H3            1 RES     
    1778 C0         -12.8170  -137.6177    47.0790 C0            1 RES     
    1779 C1         -12.3914  -138.1471    48.4624 C1            1 RES     
    1780 C1         -13.4234  -138.6053    49.2290 C1            1 RES     
    1781 S2         -12.9240  -139.2464    50.7281 S2            1 RES     
    1782 C1         -11.3037  -138.8096    50.4126 C1            1 RES     
    1783 C1         -11.2137  -138.2505    49.1498 C1            1 RES     
    1784 C1         -14.6262  -138.3500    48.5161 C1            1 RES     
    1785 C1         -14.3303  -137.7339    47.3343 C1            1 RES     
    1786 C1         -15.4733  -137.2981    46.6548 C1            1 RES     
    1787 C1         -16.6514  -137.6400    47.3467 C1            1 RES     
    1788 S2         -16.2686  -138.4816    48.7848 S2            1 RES     
    1789 H3         -10.2872  -137.9565    48.8019 H3            1 RES     
    1790 H3         -15.4459  -136.7629    45.7095 H3            1 RES     
    1791 C1         -18.3714  -136.0642    46.4080 C1            1 RES     
    1792 F4         -17.4505  -135.0643    46.3674 F4            1 RES     
    1793 C1         -19.6541  -135.8142    45.9250 C1            1 RES     
    1794 C1         -20.6649  -136.8007    45.9240 C1            1 RES     
    1795 C1         -20.3509  -138.0485    46.4889 C1            1 RES     
    1796 N5         -21.2095  -139.1061    46.5088 N5            1 RES     
    1797 S2         -20.2704  -140.3099    47.1354 S2            1 RES     
    1798 N5         -18.8012  -139.5859    47.3960 N5            1 RES     
    1799 C1         -19.0390  -138.3128    46.9624 C1            1 RES     
    1800 C1         -18.0349  -137.3287    46.9120 C1            1 RES     
    1801 H3         -19.8699  -134.8272    45.5250 H3            1 RES     
    1802 C1          -9.5452  -140.2262    51.5915 C1            1 RES     
    1803 F4         -10.3270  -141.3288    51.5681 F4            1 RES     
    1804 C1          -8.2005  -140.3604    51.9951 C1            1 RES     
    1805 C1          -7.3298  -139.2603    52.0027 C1            1 RES     
    1806 C1          -7.8161  -138.0126    51.6322 C1            1 RES     
    1807 N5          -7.0619  -136.8835    51.6241 N5            1 RES     
    1808 S2          -8.1338  -135.7487    51.0812 S2            1 RES     
    1809 N5          -9.5179  -136.6104    50.8324 N5            1 RES     
    1810 C1          -9.1566  -137.8706    51.1970 C1            1 RES     
    1811 C1         -10.0236  -138.9803    51.1384 C1            1 RES     
    1812 H3          -7.8181  -141.3336    52.2757 H3            1 RES     
    1813 C0         -23.0324  -135.9925    40.5034 C0            1 RES     
    1814 C0         -22.9081  -137.5485    40.1766 C0            1 RES     
    1815 C0         -21.8622  -138.3061    41.0507 C0            1 RES     
    1816 C0         -22.4752  -138.8934    42.3200 C0            1 RES     
    1817 C0         -21.4260  -139.4125    43.3045 C0            1 RES     
    1818 C0         -20.7393  -140.7000    42.8688 C0            1 RES     
    1819 C0         -22.4880  -137.6333    38.6601 C0            1 RES     
    1820 C0         -22.0633  -139.0092    38.0768 C0            1 RES     
    1821 C0         -23.0470  -140.1683    38.2990 C0            1 RES     
    1822 C0         -24.4374  -139.9650    37.6913 C0            1 RES     
    1823 C0         -24.3902  -139.8010    36.1571 C0            1 RES     
    1824 C0         -25.7955  -139.6753    35.5805 C0            1 RES     
    1825 H6         -22.0572  -135.5938    40.2068 H6            1 RES     
    1826 H6         -23.7199  -135.5721    39.7345 H6            1 RES     
    1827 H6         -23.8866  -138.0706    40.2624 H6            1 RES     
    1828 H6         -20.9852  -137.6612    41.2346 H6            1 RES     
    1829 H6         -21.4743  -139.2072    40.5553 H6            1 RES     
    1830 H6         -23.0410  -138.1323    42.8265 H6            1 RES     
    1831 H6         -23.2122  -139.6878    42.0723 H6            1 RES     
    1832 H6         -21.9578  -139.6349    44.2462 H6            1 RES     
    1833 H6         -20.6665  -138.6201    43.4933 H6            1 RES     
    1834 H6         -21.4969  -141.5052    42.7619 H6            1 RES     
    1835 H6         -20.1895  -140.5721    41.9155 H6            1 RES     
    1836 H6         -20.0158  -141.0013    43.6568 H6            1 RES     
    1837 H6         -23.3316  -137.2391    38.0526 H6            1 RES     
    1838 H6         -21.6151  -136.9675    38.4781 H6            1 RES     
    1839 H6         -21.0806  -139.3053    38.4980 H6            1 RES     
    1840 H6         -21.8626  -138.8819    36.9918 H6            1 RES     
    1841 H6         -22.5997  -141.0896    37.8670 H6            1 RES     
    1842 H6         -23.1683  -140.3440    39.3881 H6            1 RES     
    1843 H6         -25.0483  -140.8554    37.9268 H6            1 RES     
    1844 H6         -24.9250  -139.0791    38.1433 H6            1 RES     
    1845 H6         -23.8984  -140.6894    35.6971 H6            1 RES     
    1846 H6         -23.8208  -138.8857    35.8845 H6            1 RES     
    1847 H6         -25.7379  -139.5536    34.4797 H6            1 RES     
    1848 H6         -26.3057  -138.7958    36.0150 H6            1 RES     
    1849 H6         -26.3807  -140.5922    35.8090 H6            1 RES     
    1850 C0         -23.1290  -133.7051    41.7020 C0            1 RES     
    1851 C0         -21.7531  -133.0869    41.1882 C0            1 RES     
    1852 C0         -20.4535  -133.4745    41.9697 C0            1 RES     
    1853 C0         -19.8333  -134.8172    41.5150 C0            1 RES     
    1854 C0         -18.6256  -135.2743    42.3629 C0            1 RES     
    1855 C0         -17.3357  -134.5458    42.0455 C0            1 RES     
    1856 C0         -21.9792  -131.5377    41.2018 C0            1 RES     
    1857 C0         -20.8024  -130.6264    40.7870 C0            1 RES     
    1858 C0         -20.1708  -130.9323    39.4166 C0            1 RES     
    1859 C0         -21.1183  -130.8187    38.2117 C0            1 RES     
    1860 C0         -21.7074  -129.4109    38.0416 C0            1 RES     
    1861 C0         -22.5524  -129.3231    36.7745 C0            1 RES     
    1862 H6         -23.3873  -133.2314    42.6754 H6            1 RES     
    1863 H6         -23.8703  -133.3270    40.9618 H6            1 RES     
    1864 H6         -21.5870  -133.3618    40.1244 H6            1 RES     
    1865 H6         -20.6592  -133.4216    43.0594 H6            1 RES     
    1866 H6         -19.6425  -132.7610    41.7560 H6            1 RES     
    1867 H6         -20.5819  -135.5912    41.6119 H6            1 RES     
    1868 H6         -19.5648  -134.8012    40.4374 H6            1 RES     
    1869 H6         -18.4548  -136.3569    42.1739 H6            1 RES     
    1870 H6         -18.8269  -135.1502    43.4423 H6            1 RES     
    1871 H6         -17.0558  -134.7385    40.9894 H6            1 RES     
    1872 H6         -17.4379  -133.4579    42.2255 H6            1 RES     
    1873 H6         -16.5356  -134.9464    42.7057 H6            1 RES     
    1874 H6         -22.8339  -131.3076    40.5276 H6            1 RES     
    1875 H6         -22.2738  -131.2194    42.2260 H6            1 RES     
    1876 H6         -20.0046  -130.6776    41.5549 H6            1 RES     
    1877 H6         -21.1543  -129.5736    40.8103 H6            1 RES     
    1878 H6         -19.3254  -130.2253    39.2662 H6            1 RES     
    1879 H6         -19.7425  -131.9566    39.4324 H6            1 RES     
    1880 H6         -20.5248  -131.0663    37.3036 H6            1 RES     
    1881 H6         -21.9370  -131.5639    38.2985 H6            1 RES     
    1882 H6         -20.8859  -128.6647    37.9736 H6            1 RES     
    1883 H6         -22.3517  -129.1592    38.9099 H6            1 RES     
    1884 H6         -22.9736  -128.3002    36.6778 H6            1 RES     
    1885 H6         -23.3893  -130.0520    36.8171 H6            1 RES     
    1886 H6         -21.9278  -129.5354    35.8805 H6            1 RES     
    1887 C0         -12.3773  -138.4003    45.7561 C0            1 RES     
    1888 C0         -12.2163  -139.9664    45.4553 C0            1 RES     
    1889 C0         -11.1627  -140.7108    46.3393 C0            1 RES     
    1890 C0         -11.7551  -141.2763    47.6276 C0            1 RES     
    1891 C0         -10.6955  -141.7639    48.6176 C0            1 RES     
    1892 C0          -9.9931  -143.0556    48.2203 C0            1 RES     
    1893 C0         -11.7812  -140.0593    43.9429 C0            1 RES     
    1894 C0         -11.3245  -141.4297    43.3725 C0            1 RES     
    1895 C0         -12.2936  -142.6058    43.5834 C0            1 RES     
    1896 C0         -13.6793  -142.4175    42.9564 C0            1 RES     
    1897 C0         -13.6237  -142.2504    41.4318 C0            1 RES     
    1898 C0         -15.0261  -142.1295    40.8510 C0            1 RES     
    1899 H6         -11.4060  -137.9922    45.4626 H6            1 RES     
    1900 H6         -13.0586  -138.0043    44.9707 H6            1 RES     
    1901 H6         -13.1866  -140.5028    45.5411 H6            1 RES     
    1902 H6         -10.2783  -140.0739    46.4986 H6            1 RES     
    1903 H6         -10.7825  -141.6241    45.8595 H6            1 RES     
    1904 H6         -12.3160  -140.5092    48.1236 H6            1 RES     
    1905 H6         -12.4902  -142.0796    47.4062 H6            1 RES     
    1906 H6         -11.2285  -141.9719    49.5627 H6            1 RES     
    1907 H6          -9.9444  -140.9598    48.7857 H6            1 RES     
    1908 H6         -10.7393  -143.8735    48.1382 H6            1 RES     
    1909 H6          -9.4420  -142.9478    47.2656 H6            1 RES     
    1910 H6          -9.2679  -143.3244    49.0196 H6            1 RES     
    1911 H6         -12.6208  -139.6824    43.3235 H6            1 RES     
    1912 H6         -10.9136  -139.3841    43.7677 H6            1 RES     
    1913 H6         -10.3451  -141.7136    43.8075 H6            1 RES     
    1914 H6         -11.1130  -141.3047    42.2903 H6            1 RES     
    1915 H6         -11.8285  -143.5201    43.1515 H6            1 RES     
    1916 H6         -12.4232  -142.7868    44.6711 H6            1 RES     
    1917 H6         -14.2787  -143.3236    43.1943 H6            1 RES     
    1918 H6         -14.1829  -141.5411    43.4175 H6            1 RES     
    1919 H6         -13.1172  -143.1299    40.9762 H6            1 RES     
    1920 H6         -13.0592  -141.3330    41.1645 H6            1 RES     
    1921 H6         -14.9621  -142.0035    39.7501 H6            1 RES     
    1922 H6         -15.5434  -141.2467    41.2838 H6            1 RES     
    1923 H6         -15.6141  -143.0452    41.0738 H6            1 RES     
    1924 C0         -12.4511  -136.0892    46.9252 C0            1 RES     
    1925 C0         -11.0448  -135.5077    46.4246 C0            1 RES     
    1926 C0          -9.7490  -135.9221    47.2037 C0            1 RES     
    1927 C0          -9.1475  -137.2751    46.7463 C0            1 RES     
    1928 C0          -7.9566  -137.7730    47.5951 C0            1 RES     
    1929 C0          -6.6548  -137.0427    47.3247 C0            1 RES     
    1930 C0         -11.2250  -133.9535    46.4445 C0            1 RES     
    1931 C0         -10.0250  -133.0698    46.0315 C0            1 RES     
    1932 C0          -9.4012  -133.3872    44.6604 C0            1 RES     
    1933 C0         -10.3526  -133.2718    43.4593 C0            1 RES     
    1934 C0         -10.9445  -131.8651    43.2936 C0            1 RES     
    1935 C0         -11.7909  -131.7771    42.0275 C0            1 RES     
    1936 H6         -12.7075  -135.6030    47.8933 H6            1 RES     
    1937 H6         -13.1730  -135.6968    46.1741 H6            1 RES     
    1938 H6         -10.8796  -135.7835    45.3607 H6            1 RES     
    1939 H6          -9.9510  -135.8515    48.2901 H6            1 RES     
    1940 H6          -8.9234  -135.2254    46.9925 H6            1 RES     
    1941 H6          -9.9088  -138.0348    46.8369 H6            1 RES     
    1942 H6          -8.8706  -137.2533    45.6710 H6            1 RES     
    1943 H6          -7.7892  -138.8487    47.3672 H6            1 RES     
    1944 H6          -8.1790  -137.6982    48.6745 H6            1 RES     
    1945 H6          -6.3587  -137.1975    46.2665 H6            1 RES     
    1946 H6          -6.7501  -135.9615    47.5434 H6            1 RES     
    1947 H6          -5.8661  -137.4728    47.9802 H6            1 RES     
    1948 H6         -12.0735  -133.6971    45.7730 H6            1 RES     
    1949 H6         -11.5074  -133.6326    47.4712 H6            1 RES     
    1950 H6          -9.2267  -133.1367    46.7980 H6            1 RES     
    1951 H6         -10.3538  -132.0097    46.0550 H6            1 RES     
    1952 H6          -8.5500  -132.6880    44.5044 H6            1 RES     
    1953 H6          -8.9817  -134.4154    44.6781 H6            1 RES     
    1954 H6          -9.7630  -133.5197    42.5490 H6            1 RES     
    1955 H6         -11.1714  -134.0169    43.5492 H6            1 RES     
    1956 H6         -10.1252  -131.1165    43.2270 H6            1 RES     
    1957 H6         -11.5885  -131.6178    44.1637 H6            1 RES     
    1958 H6         -12.2168  -130.7560    41.9343 H6            1 RES     
    1959 H6         -12.6243  -132.5104    42.0677 H6            1 RES     
    1960 H6         -11.1651  -131.9837    41.1329 H6            1 RES     
    1961 H7          13.8758    10.0326    11.0361 H7            1 RES     
    1962 H3          -6.2813  -139.3772    52.2921 H3            1 RES     
@<TRIPOS>BOND
       1        1        2 1
       2        1        8 1
       3        1       49 1
       4        1       86 1
       5        2        3 1
       6        2        6 1
       7        3        4 1
       8        3        7 1
       9        4        5 1
      10        5        6 1
      11        5       30 1
      12        6       12 1
      13        7        8 1
      14        7       11 1
      15        8        9 1
      16        9       10 1
      17        9       13 1
      18       10       11 1
      19       10     1961 1
      20       14       15 1
      21       14       21 1
      22       14      123 1
      23       14      160 1
      24       15       16 1
      25       15       19 1
      26       16       17 1
      27       16       20 1
      28       17       18 1
      29       18       19 1
      30       18       47 1
      31       19       25 1
      32       20       21 1
      33       20       24 1
      34       21       22 1
      35       22       23 1
      36       22       26 1
      37       23       24 1
      38       23       36 1
      39       27       28 1
      40       27       29 1
      41       27       36 1
      42       29       30 1
      43       29       37 1
      44       30       31 1
      45       31       32 1
      46       31       35 1
      47       32       33 1
      48       33       34 1
      49       34       35 1
      50       35       36 1
      51       38       39 1
      52       38       40 1
      53       38       47 1
      54       40       41 1
      55       40       48 1
      56       41       42 1
      57       41      206 1
      58       42       43 1
      59       42       46 1
      60       43       44 1
      61       44       45 1
      62       45       46 1
      63       46       47 1
      64       49       50 1
      65       49       61 1
      66       49       62 1
      67       50       51 1
      68       50       55 1
      69       50       63 1
      70       51       52 1
      71       51       64 1
      72       51       65 1
      73       52       53 1
      74       52       66 1
      75       52       67 1
      76       53       54 1
      77       53       68 1
      78       53       69 1
      79       54       70 1
      80       54       71 1
      81       54       72 1
      82       55       56 1
      83       55       73 1
      84       55       74 1
      85       56       57 1
      86       56       75 1
      87       56       76 1
      88       57       58 1
      89       57       77 1
      90       57       78 1
      91       58       59 1
      92       58       79 1
      93       58       80 1
      94       59       60 1
      95       59       81 1
      96       59       82 1
      97       60       83 1
      98       60       84 1
      99       60       85 1
     100       86       87 1
     101       86       98 1
     102       86       99 1
     103       87       88 1
     104       87       92 1
     105       87      100 1
     106       88       89 1
     107       88      101 1
     108       88      102 1
     109       89       90 1
     110       89      103 1
     111       89      104 1
     112       90       91 1
     113       90      105 1
     114       90      106 1
     115       91      107 1
     116       91      108 1
     117       91      109 1
     118       92       93 1
     119       92      110 1
     120       92      111 1
     121       93       94 1
     122       93      112 1
     123       93      113 1
     124       94       95 1
     125       94      114 1
     126       94      115 1
     127       95       96 1
     128       95      116 1
     129       95      117 1
     130       96       97 1
     131       96      118 1
     132       96      119 1
     133       97      120 1
     134       97      121 1
     135       97      122 1
     136      123      124 1
     137      123      135 1
     138      123      136 1
     139      124      125 1
     140      124      129 1
     141      124      137 1
     142      125      126 1
     143      125      138 1
     144      125      139 1
     145      126      127 1
     146      126      140 1
     147      126      141 1
     148      127      128 1
     149      127      142 1
     150      127      143 1
     151      128      144 1
     152      128      145 1
     153      128      146 1
     154      129      130 1
     155      129      147 1
     156      129      148 1
     157      130      131 1
     158      130      149 1
     159      130      150 1
     160      131      132 1
     161      131      151 1
     162      131      152 1
     163      132      133 1
     164      132      153 1
     165      132      154 1
     166      133      134 1
     167      133      155 1
     168      133      156 1
     169      134      157 1
     170      134      158 1
     171      134      159 1
     172      160      161 1
     173      160      172 1
     174      160      173 1
     175      161      162 1
     176      161      166 1
     177      161      174 1
     178      162      163 1
     179      162      175 1
     180      162      176 1
     181      163      164 1
     182      163      177 1
     183      163      178 1
     184      164      165 1
     185      164      179 1
     186      164      180 1
     187      165      181 1
     188      165      182 1
     189      165      183 1
     190      166      167 1
     191      166      184 1
     192      166      185 1
     193      167      168 1
     194      167      186 1
     195      167      187 1
     196      168      169 1
     197      168      188 1
     198      168      189 1
     199      169      170 1
     200      169      190 1
     201      169      191 1
     202      170      171 1
     203      170      192 1
     204      170      193 1
     205      171      194 1
     206      171      195 1
     207      171      196 1
     208      197      198 1
     209      197      204 1
     210      197      245 1
     211      197      282 1
     212      198      199 1
     213      198      202 1
     214      199      200 1
     215      199      203 1
     216      200      201 1
     217      201      202 1
     218      201      226 1
     219      202      208 1
     220      203      204 1
     221      203      207 1
     222      204      205 1
     223      205      206 1
     224      205      209 1
     225      206      207 1
     226      210      211 1
     227      210      217 1
     228      210      319 1
     229      210      356 1
     230      211      212 1
     231      211      215 1
     232      212      213 1
     233      212      216 1
     234      213      214 1
     235      214      215 1
     236      214      243 1
     237      215      221 1
     238      216      217 1
     239      216      220 1
     240      217      218 1
     241      218      219 1
     242      218      222 1
     243      219      220 1
     244      219      232 1
     245      223      224 1
     246      223      225 1
     247      223      232 1
     248      225      226 1
     249      225      233 1
     250      226      227 1
     251      227      228 1
     252      227      231 1
     253      228      229 1
     254      229      230 1
     255      230      231 1
     256      231      232 1
     257      234      235 1
     258      234      236 1
     259      234      243 1
     260      236      237 1
     261      236      244 1
     262      237      238 1
     263      237      402 1
     264      238      239 1
     265      238      242 1
     266      239      240 1
     267      240      241 1
     268      241      242 1
     269      242      243 1
     270      245      246 1
     271      245      257 1
     272      245      258 1
     273      246      247 1
     274      246      251 1
     275      246      259 1
     276      247      248 1
     277      247      260 1
     278      247      261 1
     279      248      249 1
     280      248      262 1
     281      248      263 1
     282      249      250 1
     283      249      264 1
     284      249      265 1
     285      250      266 1
     286      250      267 1
     287      250      268 1
     288      251      252 1
     289      251      269 1
     290      251      270 1
     291      252      253 1
     292      252      271 1
     293      252      272 1
     294      253      254 1
     295      253      273 1
     296      253      274 1
     297      254      255 1
     298      254      275 1
     299      254      276 1
     300      255      256 1
     301      255      277 1
     302      255      278 1
     303      256      279 1
     304      256      280 1
     305      256      281 1
     306      282      283 1
     307      282      294 1
     308      282      295 1
     309      283      284 1
     310      283      288 1
     311      283      296 1
     312      284      285 1
     313      284      297 1
     314      284      298 1
     315      285      286 1
     316      285      299 1
     317      285      300 1
     318      286      287 1
     319      286      301 1
     320      286      302 1
     321      287      303 1
     322      287      304 1
     323      287      305 1
     324      288      289 1
     325      288      306 1
     326      288      307 1
     327      289      290 1
     328      289      308 1
     329      289      309 1
     330      290      291 1
     331      290      310 1
     332      290      311 1
     333      291      292 1
     334      291      312 1
     335      291      313 1
     336      292      293 1
     337      292      314 1
     338      292      315 1
     339      293      316 1
     340      293      317 1
     341      293      318 1
     342      319      320 1
     343      319      331 1
     344      319      332 1
     345      320      321 1
     346      320      325 1
     347      320      333 1
     348      321      322 1
     349      321      334 1
     350      321      335 1
     351      322      323 1
     352      322      336 1
     353      322      337 1
     354      323      324 1
     355      323      338 1
     356      323      339 1
     357      324      340 1
     358      324      341 1
     359      324      342 1
     360      325      326 1
     361      325      343 1
     362      325      344 1
     363      326      327 1
     364      326      345 1
     365      326      346 1
     366      327      328 1
     367      327      347 1
     368      327      348 1
     369      328      329 1
     370      328      349 1
     371      328      350 1
     372      329      330 1
     373      329      351 1
     374      329      352 1
     375      330      353 1
     376      330      354 1
     377      330      355 1
     378      356      357 1
     379      356      368 1
     380      356      369 1
     381      357      358 1
     382      357      362 1
     383      357      370 1
     384      358      359 1
     385      358      371 1
     386      358      372 1
     387      359      360 1
     388      359      373 1
     389      359      374 1
     390      360      361 1
     391      360      375 1
     392      360      376 1
     393      361      377 1
     394      361      378 1
     395      361      379 1
     396      362      363 1
     397      362      380 1
     398      362      381 1
     399      363      364 1
     400      363      382 1
     401      363      383 1
     402      364      365 1
     403      364      384 1
     404      364      385 1
     405      365      366 1
     406      365      386 1
     407      365      387 1
     408      366      367 1
     409      366      388 1
     410      366      389 1
     411      367      390 1
     412      367      391 1
     413      367      392 1
     414      393      394 1
     415      393      400 1
     416      393      441 1
     417      393      478 1
     418      394      395 1
     419      394      398 1
     420      395      396 1
     421      395      399 1
     422      396      397 1
     423      397      398 1
     424      397      422 1
     425      398      404 1
     426      399      400 1
     427      399      403 1
     428      400      401 1
     429      401      402 1
     430      401      405 1
     431      402      403 1
     432      406      407 1
     433      406      413 1
     434      406      515 1
     435      406      552 1
     436      407      408 1
     437      407      411 1
     438      408      409 1
     439      408      412 1
     440      409      410 1
     441      410      411 1
     442      410      439 1
     443      411      417 1
     444      412      413 1
     445      412      416 1
     446      413      414 1
     447      414      415 1
     448      414      418 1
     449      415      416 1
     450      415      428 1
     451      419      420 1
     452      419      421 1
     453      419      428 1
     454      421      422 1
     455      421      429 1
     456      422      423 1
     457      423      424 1
     458      423      427 1
     459      424      425 1
     460      425      426 1
     461      426      427 1
     462      427      428 1
     463      430      431 1
     464      430      432 1
     465      430      439 1
     466      432      433 1
     467      432      440 1
     468      433      434 1
     469      433      598 1
     470      434      435 1
     471      434      438 1
     472      435      436 1
     473      436      437 1
     474      437      438 1
     475      438      439 1
     476      441      442 1
     477      441      453 1
     478      441      454 1
     479      442      443 1
     480      442      447 1
     481      442      455 1
     482      443      444 1
     483      443      456 1
     484      443      457 1
     485      444      445 1
     486      444      458 1
     487      444      459 1
     488      445      446 1
     489      445      460 1
     490      445      461 1
     491      446      462 1
     492      446      463 1
     493      446      464 1
     494      447      448 1
     495      447      465 1
     496      447      466 1
     497      448      449 1
     498      448      467 1
     499      448      468 1
     500      449      450 1
     501      449      469 1
     502      449      470 1
     503      450      451 1
     504      450      471 1
     505      450      472 1
     506      451      452 1
     507      451      473 1
     508      451      474 1
     509      452      475 1
     510      452      476 1
     511      452      477 1
     512      478      479 1
     513      478      490 1
     514      478      491 1
     515      479      480 1
     516      479      484 1
     517      479      492 1
     518      480      481 1
     519      480      493 1
     520      480      494 1
     521      481      482 1
     522      481      495 1
     523      481      496 1
     524      482      483 1
     525      482      497 1
     526      482      498 1
     527      483      499 1
     528      483      500 1
     529      483      501 1
     530      484      485 1
     531      484      502 1
     532      484      503 1
     533      485      486 1
     534      485      504 1
     535      485      505 1
     536      486      487 1
     537      486      506 1
     538      486      507 1
     539      487      488 1
     540      487      508 1
     541      487      509 1
     542      488      489 1
     543      488      510 1
     544      488      511 1
     545      489      512 1
     546      489      513 1
     547      489      514 1
     548      515      516 1
     549      515      527 1
     550      515      528 1
     551      516      517 1
     552      516      521 1
     553      516      529 1
     554      517      518 1
     555      517      530 1
     556      517      531 1
     557      518      519 1
     558      518      532 1
     559      518      533 1
     560      519      520 1
     561      519      534 1
     562      519      535 1
     563      520      536 1
     564      520      537 1
     565      520      538 1
     566      521      522 1
     567      521      539 1
     568      521      540 1
     569      522      523 1
     570      522      541 1
     571      522      542 1
     572      523      524 1
     573      523      543 1
     574      523      544 1
     575      524      525 1
     576      524      545 1
     577      524      546 1
     578      525      526 1
     579      525      547 1
     580      525      548 1
     581      526      549 1
     582      526      550 1
     583      526      551 1
     584      552      553 1
     585      552      564 1
     586      552      565 1
     587      553      554 1
     588      553      558 1
     589      553      566 1
     590      554      555 1
     591      554      567 1
     592      554      568 1
     593      555      556 1
     594      555      569 1
     595      555      570 1
     596      556      557 1
     597      556      571 1
     598      556      572 1
     599      557      573 1
     600      557      574 1
     601      557      575 1
     602      558      559 1
     603      558      576 1
     604      558      577 1
     605      559      560 1
     606      559      578 1
     607      559      579 1
     608      560      561 1
     609      560      580 1
     610      560      581 1
     611      561      562 1
     612      561      582 1
     613      561      583 1
     614      562      563 1
     615      562      584 1
     616      562      585 1
     617      563      586 1
     618      563      587 1
     619      563      588 1
     620      589      590 1
     621      589      596 1
     622      589      637 1
     623      589      674 1
     624      590      591 1
     625      590      594 1
     626      591      592 1
     627      591      595 1
     628      592      593 1
     629      593      594 1
     630      593      618 1
     631      594      600 1
     632      595      596 1
     633      595      599 1
     634      596      597 1
     635      597      598 1
     636      597      601 1
     637      598      599 1
     638      602      603 1
     639      602      609 1
     640      602      711 1
     641      602      748 1
     642      603      604 1
     643      603      607 1
     644      604      605 1
     645      604      608 1
     646      605      606 1
     647      606      607 1
     648      606      635 1
     649      607      613 1
     650      608      609 1
     651      608      612 1
     652      609      610 1
     653      610      611 1
     654      610      614 1
     655      611      612 1
     656      611      624 1
     657      615      616 1
     658      615      617 1
     659      615      624 1
     660      617      618 1
     661      617      625 1
     662      618      619 1
     663      619      620 1
     664      619      623 1
     665      620      621 1
     666      621      622 1
     667      622      623 1
     668      623      624 1
     669      626      627 1
     670      626      628 1
     671      626      635 1
     672      628      629 1
     673      628      636 1
     674      629      630 1
     675      629      794 1
     676      630      631 1
     677      630      634 1
     678      631      632 1
     679      632      633 1
     680      633      634 1
     681      634      635 1
     682      637      638 1
     683      637      649 1
     684      637      650 1
     685      638      639 1
     686      638      643 1
     687      638      651 1
     688      639      640 1
     689      639      652 1
     690      639      653 1
     691      640      641 1
     692      640      654 1
     693      640      655 1
     694      641      642 1
     695      641      656 1
     696      641      657 1
     697      642      658 1
     698      642      659 1
     699      642      660 1
     700      643      644 1
     701      643      661 1
     702      643      662 1
     703      644      645 1
     704      644      663 1
     705      644      664 1
     706      645      646 1
     707      645      665 1
     708      645      666 1
     709      646      647 1
     710      646      667 1
     711      646      668 1
     712      647      648 1
     713      647      669 1
     714      647      670 1
     715      648      671 1
     716      648      672 1
     717      648      673 1
     718      674      675 1
     719      674      686 1
     720      674      687 1
     721      675      676 1
     722      675      680 1
     723      675      688 1
     724      676      677 1
     725      676      689 1
     726      676      690 1
     727      677      678 1
     728      677      691 1
     729      677      692 1
     730      678      679 1
     731      678      693 1
     732      678      694 1
     733      679      695 1
     734      679      696 1
     735      679      697 1
     736      680      681 1
     737      680      698 1
     738      680      699 1
     739      681      682 1
     740      681      700 1
     741      681      701 1
     742      682      683 1
     743      682      702 1
     744      682      703 1
     745      683      684 1
     746      683      704 1
     747      683      705 1
     748      684      685 1
     749      684      706 1
     750      684      707 1
     751      685      708 1
     752      685      709 1
     753      685      710 1
     754      711      712 1
     755      711      723 1
     756      711      724 1
     757      712      713 1
     758      712      717 1
     759      712      725 1
     760      713      714 1
     761      713      726 1
     762      713      727 1
     763      714      715 1
     764      714      728 1
     765      714      729 1
     766      715      716 1
     767      715      730 1
     768      715      731 1
     769      716      732 1
     770      716      733 1
     771      716      734 1
     772      717      718 1
     773      717      735 1
     774      717      736 1
     775      718      719 1
     776      718      737 1
     777      718      738 1
     778      719      720 1
     779      719      739 1
     780      719      740 1
     781      720      721 1
     782      720      741 1
     783      720      742 1
     784      721      722 1
     785      721      743 1
     786      721      744 1
     787      722      745 1
     788      722      746 1
     789      722      747 1
     790      748      749 1
     791      748      760 1
     792      748      761 1
     793      749      750 1
     794      749      754 1
     795      749      762 1
     796      750      751 1
     797      750      763 1
     798      750      764 1
     799      751      752 1
     800      751      765 1
     801      751      766 1
     802      752      753 1
     803      752      767 1
     804      752      768 1
     805      753      769 1
     806      753      770 1
     807      753      771 1
     808      754      755 1
     809      754      772 1
     810      754      773 1
     811      755      756 1
     812      755      774 1
     813      755      775 1
     814      756      757 1
     815      756      776 1
     816      756      777 1
     817      757      758 1
     818      757      778 1
     819      757      779 1
     820      758      759 1
     821      758      780 1
     822      758      781 1
     823      759      782 1
     824      759      783 1
     825      759      784 1
     826      785      786 1
     827      785      792 1
     828      785      833 1
     829      785      870 1
     830      786      787 1
     831      786      790 1
     832      787      788 1
     833      787      791 1
     834      788      789 1
     835      789      790 1
     836      789      814 1
     837      790      796 1
     838      791      792 1
     839      791      795 1
     840      792      793 1
     841      793      794 1
     842      793      797 1
     843      794      795 1
     844      798      799 1
     845      798      805 1
     846      798      907 1
     847      798      944 1
     848      799      800 1
     849      799      803 1
     850      800      801 1
     851      800      804 1
     852      801      802 1
     853      802      803 1
     854      802      831 1
     855      803      809 1
     856      804      805 1
     857      804      808 1
     858      805      806 1
     859      806      807 1
     860      806      810 1
     861      807      808 1
     862      807      820 1
     863      811      812 1
     864      811      813 1
     865      811      820 1
     866      813      814 1
     867      813      821 1
     868      814      815 1
     869      815      816 1
     870      815      819 1
     871      816      817 1
     872      817      818 1
     873      818      819 1
     874      819      820 1
     875      822      823 1
     876      822      824 1
     877      822      831 1
     878      824      825 1
     879      824      832 1
     880      825      826 1
     881      825      990 1
     882      826      827 1
     883      826      830 1
     884      827      828 1
     885      828      829 1
     886      829      830 1
     887      830      831 1
     888      833      834 1
     889      833      845 1
     890      833      846 1
     891      834      835 1
     892      834      839 1
     893      834      847 1
     894      835      836 1
     895      835      848 1
     896      835      849 1
     897      836      837 1
     898      836      850 1
     899      836      851 1
     900      837      838 1
     901      837      852 1
     902      837      853 1
     903      838      854 1
     904      838      855 1
     905      838      856 1
     906      839      840 1
     907      839      857 1
     908      839      858 1
     909      840      841 1
     910      840      859 1
     911      840      860 1
     912      841      842 1
     913      841      861 1
     914      841      862 1
     915      842      843 1
     916      842      863 1
     917      842      864 1
     918      843      844 1
     919      843      865 1
     920      843      866 1
     921      844      867 1
     922      844      868 1
     923      844      869 1
     924      870      871 1
     925      870      882 1
     926      870      883 1
     927      871      872 1
     928      871      876 1
     929      871      884 1
     930      872      873 1
     931      872      885 1
     932      872      886 1
     933      873      874 1
     934      873      887 1
     935      873      888 1
     936      874      875 1
     937      874      889 1
     938      874      890 1
     939      875      891 1
     940      875      892 1
     941      875      893 1
     942      876      877 1
     943      876      894 1
     944      876      895 1
     945      877      878 1
     946      877      896 1
     947      877      897 1
     948      878      879 1
     949      878      898 1
     950      878      899 1
     951      879      880 1
     952      879      900 1
     953      879      901 1
     954      880      881 1
     955      880      902 1
     956      880      903 1
     957      881      904 1
     958      881      905 1
     959      881      906 1
     960      907      908 1
     961      907      919 1
     962      907      920 1
     963      908      909 1
     964      908      913 1
     965      908      921 1
     966      909      910 1
     967      909      922 1
     968      909      923 1
     969      910      911 1
     970      910      924 1
     971      910      925 1
     972      911      912 1
     973      911      926 1
     974      911      927 1
     975      912      928 1
     976      912      929 1
     977      912      930 1
     978      913      914 1
     979      913      931 1
     980      913      932 1
     981      914      915 1
     982      914      933 1
     983      914      934 1
     984      915      916 1
     985      915      935 1
     986      915      936 1
     987      916      917 1
     988      916      937 1
     989      916      938 1
     990      917      918 1
     991      917      939 1
     992      917      940 1
     993      918      941 1
     994      918      942 1
     995      918      943 1
     996      944      945 1
     997      944      956 1
     998      944      957 1
     999      945      946 1
    1000      945      950 1
    1001      945      958 1
    1002      946      947 1
    1003      946      959 1
    1004      946      960 1
    1005      947      948 1
    1006      947      961 1
    1007      947      962 1
    1008      948      949 1
    1009      948      963 1
    1010      948      964 1
    1011      949      965 1
    1012      949      966 1
    1013      949      967 1
    1014      950      951 1
    1015      950      968 1
    1016      950      969 1
    1017      951      952 1
    1018      951      970 1
    1019      951      971 1
    1020      952      953 1
    1021      952      972 1
    1022      952      973 1
    1023      953      954 1
    1024      953      974 1
    1025      953      975 1
    1026      954      955 1
    1027      954      976 1
    1028      954      977 1
    1029      955      978 1
    1030      955      979 1
    1031      955      980 1
    1032      981      982 1
    1033      981      988 1
    1034      981     1029 1
    1035      981     1066 1
    1036      982      983 1
    1037      982      986 1
    1038      983      984 1
    1039      983      987 1
    1040      984      985 1
    1041      985      986 1
    1042      985     1010 1
    1043      986      992 1
    1044      987      988 1
    1045      987      991 1
    1046      988      989 1
    1047      989      990 1
    1048      989      993 1
    1049      990      991 1
    1050      994      995 1
    1051      994     1001 1
    1052      994     1103 1
    1053      994     1140 1
    1054      995      996 1
    1055      995      999 1
    1056      996      997 1
    1057      996     1000 1
    1058      997      998 1
    1059      998      999 1
    1060      998     1027 1
    1061      999     1005 1
    1062     1000     1001 1
    1063     1000     1004 1
    1064     1001     1002 1
    1065     1002     1003 1
    1066     1002     1006 1
    1067     1003     1004 1
    1068     1003     1016 1
    1069     1007     1008 1
    1070     1007     1009 1
    1071     1007     1016 1
    1072     1009     1010 1
    1073     1009     1017 1
    1074     1010     1011 1
    1075     1011     1012 1
    1076     1011     1015 1
    1077     1012     1013 1
    1078     1013     1014 1
    1079     1014     1015 1
    1080     1015     1016 1
    1081     1018     1019 1
    1082     1018     1020 1
    1083     1018     1027 1
    1084     1020     1021 1
    1085     1020     1028 1
    1086     1021     1022 1
    1087     1021     1186 1
    1088     1022     1023 1
    1089     1022     1026 1
    1090     1023     1024 1
    1091     1024     1025 1
    1092     1025     1026 1
    1093     1026     1027 1
    1094     1029     1030 1
    1095     1029     1041 1
    1096     1029     1042 1
    1097     1030     1031 1
    1098     1030     1035 1
    1099     1030     1043 1
    1100     1031     1032 1
    1101     1031     1044 1
    1102     1031     1045 1
    1103     1032     1033 1
    1104     1032     1046 1
    1105     1032     1047 1
    1106     1033     1034 1
    1107     1033     1048 1
    1108     1033     1049 1
    1109     1034     1050 1
    1110     1034     1051 1
    1111     1034     1052 1
    1112     1035     1036 1
    1113     1035     1053 1
    1114     1035     1054 1
    1115     1036     1037 1
    1116     1036     1055 1
    1117     1036     1056 1
    1118     1037     1038 1
    1119     1037     1057 1
    1120     1037     1058 1
    1121     1038     1039 1
    1122     1038     1059 1
    1123     1038     1060 1
    1124     1039     1040 1
    1125     1039     1061 1
    1126     1039     1062 1
    1127     1040     1063 1
    1128     1040     1064 1
    1129     1040     1065 1
    1130     1066     1067 1
    1131     1066     1078 1
    1132     1066     1079 1
    1133     1067     1068 1
    1134     1067     1072 1
    1135     1067     1080 1
    1136     1068     1069 1
    1137     1068     1081 1
    1138     1068     1082 1
    1139     1069     1070 1
    1140     1069     1083 1
    1141     1069     1084 1
    1142     1070     1071 1
    1143     1070     1085 1
    1144     1070     1086 1
    1145     1071     1087 1
    1146     1071     1088 1
    1147     1071     1089 1
    1148     1072     1073 1
    1149     1072     1090 1
    1150     1072     1091 1
    1151     1073     1074 1
    1152     1073     1092 1
    1153     1073     1093 1
    1154     1074     1075 1
    1155     1074     1094 1
    1156     1074     1095 1
    1157     1075     1076 1
    1158     1075     1096 1
    1159     1075     1097 1
    1160     1076     1077 1
    1161     1076     1098 1
    1162     1076     1099 1
    1163     1077     1100 1
    1164     1077     1101 1
    1165     1077     1102 1
    1166     1103     1104 1
    1167     1103     1115 1
    1168     1103     1116 1
    1169     1104     1105 1
    1170     1104     1109 1
    1171     1104     1117 1
    1172     1105     1106 1
    1173     1105     1118 1
    1174     1105     1119 1
    1175     1106     1107 1
    1176     1106     1120 1
    1177     1106     1121 1
    1178     1107     1108 1
    1179     1107     1122 1
    1180     1107     1123 1
    1181     1108     1124 1
    1182     1108     1125 1
    1183     1108     1126 1
    1184     1109     1110 1
    1185     1109     1127 1
    1186     1109     1128 1
    1187     1110     1111 1
    1188     1110     1129 1
    1189     1110     1130 1
    1190     1111     1112 1
    1191     1111     1131 1
    1192     1111     1132 1
    1193     1112     1113 1
    1194     1112     1133 1
    1195     1112     1134 1
    1196     1113     1114 1
    1197     1113     1135 1
    1198     1113     1136 1
    1199     1114     1137 1
    1200     1114     1138 1
    1201     1114     1139 1
    1202     1140     1141 1
    1203     1140     1152 1
    1204     1140     1153 1
    1205     1141     1142 1
    1206     1141     1146 1
    1207     1141     1154 1
    1208     1142     1143 1
    1209     1142     1155 1
    1210     1142     1156 1
    1211     1143     1144 1
    1212     1143     1157 1
    1213     1143     1158 1
    1214     1144     1145 1
    1215     1144     1159 1
    1216     1144     1160 1
    1217     1145     1161 1
    1218     1145     1162 1
    1219     1145     1163 1
    1220     1146     1147 1
    1221     1146     1164 1
    1222     1146     1165 1
    1223     1147     1148 1
    1224     1147     1166 1
    1225     1147     1167 1
    1226     1148     1149 1
    1227     1148     1168 1
    1228     1148     1169 1
    1229     1149     1150 1
    1230     1149     1170 1
    1231     1149     1171 1
    1232     1150     1151 1
    1233     1150     1172 1
    1234     1150     1173 1
    1235     1151     1174 1
    1236     1151     1175 1
    1237     1151     1176 1
    1238     1177     1178 1
    1239     1177     1184 1
    1240     1177     1225 1
    1241     1177     1262 1
    1242     1178     1179 1
    1243     1178     1182 1
    1244     1179     1180 1
    1245     1179     1183 1
    1246     1180     1181 1
    1247     1181     1182 1
    1248     1181     1206 1
    1249     1182     1188 1
    1250     1183     1184 1
    1251     1183     1187 1
    1252     1184     1185 1
    1253     1185     1186 1
    1254     1185     1189 1
    1255     1186     1187 1
    1256     1190     1191 1
    1257     1190     1197 1
    1258     1190     1299 1
    1259     1190     1336 1
    1260     1191     1192 1
    1261     1191     1195 1
    1262     1192     1193 1
    1263     1192     1196 1
    1264     1193     1194 1
    1265     1194     1195 1
    1266     1194     1223 1
    1267     1195     1201 1
    1268     1196     1197 1
    1269     1196     1200 1
    1270     1197     1198 1
    1271     1198     1199 1
    1272     1198     1202 1
    1273     1199     1200 1
    1274     1199     1212 1
    1275     1203     1204 1
    1276     1203     1205 1
    1277     1203     1212 1
    1278     1205     1206 1
    1279     1205     1213 1
    1280     1206     1207 1
    1281     1207     1208 1
    1282     1207     1211 1
    1283     1208     1209 1
    1284     1209     1210 1
    1285     1210     1211 1
    1286     1211     1212 1
    1287     1214     1215 1
    1288     1214     1216 1
    1289     1214     1223 1
    1290     1216     1217 1
    1291     1216     1224 1
    1292     1217     1218 1
    1293     1217     1382 1
    1294     1218     1219 1
    1295     1218     1222 1
    1296     1219     1220 1
    1297     1220     1221 1
    1298     1221     1222 1
    1299     1222     1223 1
    1300     1225     1226 1
    1301     1225     1237 1
    1302     1225     1238 1
    1303     1226     1227 1
    1304     1226     1231 1
    1305     1226     1239 1
    1306     1227     1228 1
    1307     1227     1240 1
    1308     1227     1241 1
    1309     1228     1229 1
    1310     1228     1242 1
    1311     1228     1243 1
    1312     1229     1230 1
    1313     1229     1244 1
    1314     1229     1245 1
    1315     1230     1246 1
    1316     1230     1247 1
    1317     1230     1248 1
    1318     1231     1232 1
    1319     1231     1249 1
    1320     1231     1250 1
    1321     1232     1233 1
    1322     1232     1251 1
    1323     1232     1252 1
    1324     1233     1234 1
    1325     1233     1253 1
    1326     1233     1254 1
    1327     1234     1235 1
    1328     1234     1255 1
    1329     1234     1256 1
    1330     1235     1236 1
    1331     1235     1257 1
    1332     1235     1258 1
    1333     1236     1259 1
    1334     1236     1260 1
    1335     1236     1261 1
    1336     1262     1263 1
    1337     1262     1274 1
    1338     1262     1275 1
    1339     1263     1264 1
    1340     1263     1268 1
    1341     1263     1276 1
    1342     1264     1265 1
    1343     1264     1277 1
    1344     1264     1278 1
    1345     1265     1266 1
    1346     1265     1279 1
    1347     1265     1280 1
    1348     1266     1267 1
    1349     1266     1281 1
    1350     1266     1282 1
    1351     1267     1283 1
    1352     1267     1284 1
    1353     1267     1285 1
    1354     1268     1269 1
    1355     1268     1286 1
    1356     1268     1287 1
    1357     1269     1270 1
    1358     1269     1288 1
    1359     1269     1289 1
    1360     1270     1271 1
    1361     1270     1290 1
    1362     1270     1291 1
    1363     1271     1272 1
    1364     1271     1292 1
    1365     1271     1293 1
    1366     1272     1273 1
    1367     1272     1294 1
    1368     1272     1295 1
    1369     1273     1296 1
    1370     1273     1297 1
    1371     1273     1298 1
    1372     1299     1300 1
    1373     1299     1311 1
    1374     1299     1312 1
    1375     1300     1301 1
    1376     1300     1305 1
    1377     1300     1313 1
    1378     1301     1302 1
    1379     1301     1314 1
    1380     1301     1315 1
    1381     1302     1303 1
    1382     1302     1316 1
    1383     1302     1317 1
    1384     1303     1304 1
    1385     1303     1318 1
    1386     1303     1319 1
    1387     1304     1320 1
    1388     1304     1321 1
    1389     1304     1322 1
    1390     1305     1306 1
    1391     1305     1323 1
    1392     1305     1324 1
    1393     1306     1307 1
    1394     1306     1325 1
    1395     1306     1326 1
    1396     1307     1308 1
    1397     1307     1327 1
    1398     1307     1328 1
    1399     1308     1309 1
    1400     1308     1329 1
    1401     1308     1330 1
    1402     1309     1310 1
    1403     1309     1331 1
    1404     1309     1332 1
    1405     1310     1333 1
    1406     1310     1334 1
    1407     1310     1335 1
    1408     1336     1337 1
    1409     1336     1348 1
    1410     1336     1349 1
    1411     1337     1338 1
    1412     1337     1342 1
    1413     1337     1350 1
    1414     1338     1339 1
    1415     1338     1351 1
    1416     1338     1352 1
    1417     1339     1340 1
    1418     1339     1353 1
    1419     1339     1354 1
    1420     1340     1341 1
    1421     1340     1355 1
    1422     1340     1356 1
    1423     1341     1357 1
    1424     1341     1358 1
    1425     1341     1359 1
    1426     1342     1343 1
    1427     1342     1360 1
    1428     1342     1361 1
    1429     1343     1344 1
    1430     1343     1362 1
    1431     1343     1363 1
    1432     1344     1345 1
    1433     1344     1364 1
    1434     1344     1365 1
    1435     1345     1346 1
    1436     1345     1366 1
    1437     1345     1367 1
    1438     1346     1347 1
    1439     1346     1368 1
    1440     1346     1369 1
    1441     1347     1370 1
    1442     1347     1371 1
    1443     1347     1372 1
    1444     1373     1374 1
    1445     1373     1380 1
    1446     1373     1421 1
    1447     1373     1458 1
    1448     1374     1375 1
    1449     1374     1378 1
    1450     1375     1376 1
    1451     1375     1379 1
    1452     1376     1377 1
    1453     1377     1378 1
    1454     1377     1402 1
    1455     1378     1384 1
    1456     1379     1380 1
    1457     1379     1383 1
    1458     1380     1381 1
    1459     1381     1382 1
    1460     1381     1385 1
    1461     1382     1383 1
    1462     1386     1387 1
    1463     1386     1393 1
    1464     1386     1495 1
    1465     1386     1532 1
    1466     1387     1388 1
    1467     1387     1391 1
    1468     1388     1389 1
    1469     1388     1392 1
    1470     1389     1390 1
    1471     1390     1391 1
    1472     1390     1419 1
    1473     1391     1397 1
    1474     1392     1393 1
    1475     1392     1396 1
    1476     1393     1394 1
    1477     1394     1395 1
    1478     1394     1398 1
    1479     1395     1396 1
    1480     1395     1408 1
    1481     1399     1400 1
    1482     1399     1401 1
    1483     1399     1408 1
    1484     1401     1402 1
    1485     1401     1409 1
    1486     1402     1403 1
    1487     1403     1404 1
    1488     1403     1407 1
    1489     1404     1405 1
    1490     1405     1406 1
    1491     1406     1407 1
    1492     1407     1408 1
    1493     1410     1411 1
    1494     1410     1412 1
    1495     1410     1419 1
    1496     1412     1413 1
    1497     1412     1420 1
    1498     1413     1414 1
    1499     1413     1578 1
    1500     1414     1415 1
    1501     1414     1418 1
    1502     1415     1416 1
    1503     1416     1417 1
    1504     1417     1418 1
    1505     1418     1419 1
    1506     1421     1422 1
    1507     1421     1433 1
    1508     1421     1434 1
    1509     1422     1423 1
    1510     1422     1427 1
    1511     1422     1435 1
    1512     1423     1424 1
    1513     1423     1436 1
    1514     1423     1437 1
    1515     1424     1425 1
    1516     1424     1438 1
    1517     1424     1439 1
    1518     1425     1426 1
    1519     1425     1440 1
    1520     1425     1441 1
    1521     1426     1442 1
    1522     1426     1443 1
    1523     1426     1444 1
    1524     1427     1428 1
    1525     1427     1445 1
    1526     1427     1446 1
    1527     1428     1429 1
    1528     1428     1447 1
    1529     1428     1448 1
    1530     1429     1430 1
    1531     1429     1449 1
    1532     1429     1450 1
    1533     1430     1431 1
    1534     1430     1451 1
    1535     1430     1452 1
    1536     1431     1432 1
    1537     1431     1453 1
    1538     1431     1454 1
    1539     1432     1455 1
    1540     1432     1456 1
    1541     1432     1457 1
    1542     1458     1459 1
    1543     1458     1470 1
    1544     1458     1471 1
    1545     1459     1460 1
    1546     1459     1464 1
    1547     1459     1472 1
    1548     1460     1461 1
    1549     1460     1473 1
    1550     1460     1474 1
    1551     1461     1462 1
    1552     1461     1475 1
    1553     1461     1476 1
    1554     1462     1463 1
    1555     1462     1477 1
    1556     1462     1478 1
    1557     1463     1479 1
    1558     1463     1480 1
    1559     1463     1481 1
    1560     1464     1465 1
    1561     1464     1482 1
    1562     1464     1483 1
    1563     1465     1466 1
    1564     1465     1484 1
    1565     1465     1485 1
    1566     1466     1467 1
    1567     1466     1486 1
    1568     1466     1487 1
    1569     1467     1468 1
    1570     1467     1488 1
    1571     1467     1489 1
    1572     1468     1469 1
    1573     1468     1490 1
    1574     1468     1491 1
    1575     1469     1492 1
    1576     1469     1493 1
    1577     1469     1494 1
    1578     1495     1496 1
    1579     1495     1507 1
    1580     1495     1508 1
    1581     1496     1497 1
    1582     1496     1501 1
    1583     1496     1509 1
    1584     1497     1498 1
    1585     1497     1510 1
    1586     1497     1511 1
    1587     1498     1499 1
    1588     1498     1512 1
    1589     1498     1513 1
    1590     1499     1500 1
    1591     1499     1514 1
    1592     1499     1515 1
    1593     1500     1516 1
    1594     1500     1517 1
    1595     1500     1518 1
    1596     1501     1502 1
    1597     1501     1519 1
    1598     1501     1520 1
    1599     1502     1503 1
    1600     1502     1521 1
    1601     1502     1522 1
    1602     1503     1504 1
    1603     1503     1523 1
    1604     1503     1524 1
    1605     1504     1505 1
    1606     1504     1525 1
    1607     1504     1526 1
    1608     1505     1506 1
    1609     1505     1527 1
    1610     1505     1528 1
    1611     1506     1529 1
    1612     1506     1530 1
    1613     1506     1531 1
    1614     1532     1533 1
    1615     1532     1544 1
    1616     1532     1545 1
    1617     1533     1534 1
    1618     1533     1538 1
    1619     1533     1546 1
    1620     1534     1535 1
    1621     1534     1547 1
    1622     1534     1548 1
    1623     1535     1536 1
    1624     1535     1549 1
    1625     1535     1550 1
    1626     1536     1537 1
    1627     1536     1551 1
    1628     1536     1552 1
    1629     1537     1553 1
    1630     1537     1554 1
    1631     1537     1555 1
    1632     1538     1539 1
    1633     1538     1556 1
    1634     1538     1557 1
    1635     1539     1540 1
    1636     1539     1558 1
    1637     1539     1559 1
    1638     1540     1541 1
    1639     1540     1560 1
    1640     1540     1561 1
    1641     1541     1542 1
    1642     1541     1562 1
    1643     1541     1563 1
    1644     1542     1543 1
    1645     1542     1564 1
    1646     1542     1565 1
    1647     1543     1566 1
    1648     1543     1567 1
    1649     1543     1568 1
    1650     1569     1570 1
    1651     1569     1576 1
    1652     1569     1617 1
    1653     1569     1654 1
    1654     1570     1571 1
    1655     1570     1574 1
    1656     1571     1572 1
    1657     1571     1575 1
    1658     1572     1573 1
    1659     1573     1574 1
    1660     1573     1598 1
    1661     1574     1580 1
    1662     1575     1576 1
    1663     1575     1579 1
    1664     1576     1577 1
    1665     1577     1578 1
    1666     1577     1581 1
    1667     1578     1579 1
    1668     1582     1583 1
    1669     1582     1589 1
    1670     1582     1691 1
    1671     1582     1728 1
    1672     1583     1584 1
    1673     1583     1587 1
    1674     1584     1585 1
    1675     1584     1588 1
    1676     1585     1586 1
    1677     1586     1587 1
    1678     1586     1615 1
    1679     1587     1593 1
    1680     1588     1589 1
    1681     1588     1592 1
    1682     1589     1590 1
    1683     1590     1591 1
    1684     1590     1594 1
    1685     1591     1592 1
    1686     1591     1604 1
    1687     1595     1596 1
    1688     1595     1597 1
    1689     1595     1604 1
    1690     1597     1598 1
    1691     1597     1605 1
    1692     1598     1599 1
    1693     1599     1600 1
    1694     1599     1603 1
    1695     1600     1601 1
    1696     1601     1602 1
    1697     1602     1603 1
    1698     1603     1604 1
    1699     1606     1607 1
    1700     1606     1608 1
    1701     1606     1615 1
    1702     1608     1609 1
    1703     1608     1616 1
    1704     1609     1610 1
    1705     1609     1774 1
    1706     1610     1611 1
    1707     1610     1614 1
    1708     1611     1612 1
    1709     1612     1613 1
    1710     1613     1614 1
    1711     1614     1615 1
    1712     1617     1618 1
    1713     1617     1629 1
    1714     1617     1630 1
    1715     1618     1619 1
    1716     1618     1623 1
    1717     1618     1631 1
    1718     1619     1620 1
    1719     1619     1632 1
    1720     1619     1633 1
    1721     1620     1621 1
    1722     1620     1634 1
    1723     1620     1635 1
    1724     1621     1622 1
    1725     1621     1636 1
    1726     1621     1637 1
    1727     1622     1638 1
    1728     1622     1639 1
    1729     1622     1640 1
    1730     1623     1624 1
    1731     1623     1641 1
    1732     1623     1642 1
    1733     1624     1625 1
    1734     1624     1643 1
    1735     1624     1644 1
    1736     1625     1626 1
    1737     1625     1645 1
    1738     1625     1646 1
    1739     1626     1627 1
    1740     1626     1647 1
    1741     1626     1648 1
    1742     1627     1628 1
    1743     1627     1649 1
    1744     1627     1650 1
    1745     1628     1651 1
    1746     1628     1652 1
    1747     1628     1653 1
    1748     1654     1655 1
    1749     1654     1666 1
    1750     1654     1667 1
    1751     1655     1656 1
    1752     1655     1660 1
    1753     1655     1668 1
    1754     1656     1657 1
    1755     1656     1669 1
    1756     1656     1670 1
    1757     1657     1658 1
    1758     1657     1671 1
    1759     1657     1672 1
    1760     1658     1659 1
    1761     1658     1673 1
    1762     1658     1674 1
    1763     1659     1675 1
    1764     1659     1676 1
    1765     1659     1677 1
    1766     1660     1661 1
    1767     1660     1678 1
    1768     1660     1679 1
    1769     1661     1662 1
    1770     1661     1680 1
    1771     1661     1681 1
    1772     1662     1663 1
    1773     1662     1682 1
    1774     1662     1683 1
    1775     1663     1664 1
    1776     1663     1684 1
    1777     1663     1685 1
    1778     1664     1665 1
    1779     1664     1686 1
    1780     1664     1687 1
    1781     1665     1688 1
    1782     1665     1689 1
    1783     1665     1690 1
    1784     1691     1692 1
    1785     1691     1703 1
    1786     1691     1704 1
    1787     1692     1693 1
    1788     1692     1697 1
    1789     1692     1705 1
    1790     1693     1694 1
    1791     1693     1706 1
    1792     1693     1707 1
    1793     1694     1695 1
    1794     1694     1708 1
    1795     1694     1709 1
    1796     1695     1696 1
    1797     1695     1710 1
    1798     1695     1711 1
    1799     1696     1712 1
    1800     1696     1713 1
    1801     1696     1714 1
    1802     1697     1698 1
    1803     1697     1715 1
    1804     1697     1716 1
    1805     1698     1699 1
    1806     1698     1717 1
    1807     1698     1718 1
    1808     1699     1700 1
    1809     1699     1719 1
    1810     1699     1720 1
    1811     1700     1701 1
    1812     1700     1721 1
    1813     1700     1722 1
    1814     1701     1702 1
    1815     1701     1723 1
    1816     1701     1724 1
    1817     1702     1725 1
    1818     1702     1726 1
    1819     1702     1727 1
    1820     1728     1729 1
    1821     1728     1740 1
    1822     1728     1741 1
    1823     1729     1730 1
    1824     1729     1734 1
    1825     1729     1742 1
    1826     1730     1731 1
    1827     1730     1743 1
    1828     1730     1744 1
    1829     1731     1732 1
    1830     1731     1745 1
    1831     1731     1746 1
    1832     1732     1733 1
    1833     1732     1747 1
    1834     1732     1748 1
    1835     1733     1749 1
    1836     1733     1750 1
    1837     1733     1751 1
    1838     1734     1735 1
    1839     1734     1752 1
    1840     1734     1753 1
    1841     1735     1736 1
    1842     1735     1754 1
    1843     1735     1755 1
    1844     1736     1737 1
    1845     1736     1756 1
    1846     1736     1757 1
    1847     1737     1738 1
    1848     1737     1758 1
    1849     1737     1759 1
    1850     1738     1739 1
    1851     1738     1760 1
    1852     1738     1761 1
    1853     1739     1762 1
    1854     1739     1763 1
    1855     1739     1764 1
    1856     1765     1766 1
    1857     1765     1772 1
    1858     1765     1813 1
    1859     1765     1850 1
    1860     1766     1767 1
    1861     1766     1770 1
    1862     1767     1768 1
    1863     1767     1771 1
    1864     1768     1769 1
    1865     1769     1770 1
    1866     1769     1794 1
    1867     1770     1776 1
    1868     1771     1772 1
    1869     1771     1775 1
    1870     1772     1773 1
    1871     1773     1774 1
    1872     1773     1777 1
    1873     1774     1775 1
    1874     1778     1779 1
    1875     1778     1785 1
    1876     1778     1887 1
    1877     1778     1924 1
    1878     1779     1780 1
    1879     1779     1783 1
    1880     1780     1781 1
    1881     1780     1784 1
    1882     1781     1782 1
    1883     1782     1783 1
    1884     1782     1811 1
    1885     1783     1789 1
    1886     1784     1785 1
    1887     1784     1788 1
    1888     1785     1786 1
    1889     1786     1787 1
    1890     1786     1790 1
    1891     1787     1788 1
    1892     1787     1800 1
    1893     1791     1792 1
    1894     1791     1793 1
    1895     1791     1800 1
    1896     1793     1794 1
    1897     1793     1801 1
    1898     1794     1795 1
    1899     1795     1796 1
    1900     1795     1799 1
    1901     1796     1797 1
    1902     1797     1798 1
    1903     1798     1799 1
    1904     1799     1800 1
    1905     1802     1803 1
    1906     1802     1804 1
    1907     1802     1811 1
    1908     1804     1805 1
    1909     1804     1812 1
    1910     1805     1806 1
    1911     1805     1962 1
    1912     1806     1807 1
    1913     1806     1810 1
    1914     1807     1808 1
    1915     1808     1809 1
    1916     1809     1810 1
    1917     1810     1811 1
    1918     1813     1814 1
    1919     1813     1825 1
    1920     1813     1826 1
    1921     1814     1815 1
    1922     1814     1819 1
    1923     1814     1827 1
    1924     1815     1816 1
    1925     1815     1828 1
    1926     1815     1829 1
    1927     1816     1817 1
    1928     1816     1830 1
    1929     1816     1831 1
    1930     1817     1818 1
    1931     1817     1832 1
    1932     1817     1833 1
    1933     1818     1834 1
    1934     1818     1835 1
    1935     1818     1836 1
    1936     1819     1820 1
    1937     1819     1837 1
    1938     1819     1838 1
    1939     1820     1821 1
    1940     1820     1839 1
    1941     1820     1840 1
    1942     1821     1822 1
    1943     1821     1841 1
    1944     1821     1842 1
    1945     1822     1823 1
    1946     1822     1843 1
    1947     1822     1844 1
    1948     1823     1824 1
    1949     1823     1845 1
    1950     1823     1846 1
    1951     1824     1847 1
    1952     1824     1848 1
    1953     1824     1849 1
    1954     1850     1851 1
    1955     1850     1862 1
    1956     1850     1863 1
    1957     1851     1852 1
    1958     1851     1856 1
    1959     1851     1864 1
    1960     1852     1853 1
    1961     1852     1865 1
    1962     1852     1866 1
    1963     1853     1854 1
    1964     1853     1867 1
    1965     1853     1868 1
    1966     1854     1855 1
    1967     1854     1869 1
    1968     1854     1870 1
    1969     1855     1871 1
    1970     1855     1872 1
    1971     1855     1873 1
    1972     1856     1857 1
    1973     1856     1874 1
    1974     1856     1875 1
    1975     1857     1858 1
    1976     1857     1876 1
    1977     1857     1877 1
    1978     1858     1859 1
    1979     1858     1878 1
    1980     1858     1879 1
    1981     1859     1860 1
    1982     1859     1880 1
    1983     1859     1881 1
    1984     1860     1861 1
    1985     1860     1882 1
    1986     1860     1883 1
    1987     1861     1884 1
    1988     1861     1885 1
    1989     1861     1886 1
    1990     1887     1888 1
    1991     1887     1899 1
    1992     1887     1900 1
    1993     1888     1889 1
    1994     1888     1893 1
    1995     1888     1901 1
    1996     1889     1890 1
    1997     1889     1902 1
    1998     1889     1903 1
    1999     1890     1891 1
    2000     1890     1904 1
    2001     1890     1905 1
    2002     1891     1892 1
    2003     1891     1906 1
    2004     1891     1907 1
    2005     1892     1908 1
    2006     1892     1909 1
    2007     1892     1910 1
    2008     1893     1894 1
    2009     1893     1911 1
    2010     1893     1912 1
    2011     1894     1895 1
    2012     1894     1913 1
    2013     1894     1914 1
    2014     1895     1896 1
    2015     1895     1915 1
    2016     1895     1916 1
    2017     1896     1897 1
    2018     1896     1917 1
    2019     1896     1918 1
    2020     1897     1898 1
    2021     1897     1919 1
    2022     1897     1920 1
    2023     1898     1921 1
    2024     1898     1922 1
    2025     1898     1923 1
    2026     1924     1925 1
    2027     1924     1936 1
    2028     1924     1937 1
    2029     1925     1926 1
    2030     1925     1930 1
    2031     1925     1938 1
    2032     1926     1927 1
    2033     1926     1939 1
    2034     1926     1940 1
    2035     1927     1928 1
    2036     1927     1941 1
    2037     1927     1942 1
    2038     1928     1929 1
    2039     1928     1943 1
    2040     1928     1944 1
    2041     1929     1945 1
    2042     1929     1946 1
    2043     1929     1947 1
    2044     1930     1931 1
    2045     1930     1948 1
    2046     1930     1949 1
    2047     1931     1932 1
    2048     1931     1950 1
    2049     1931     1951 1
    2050     1932     1933 1
    2051     1932     1952 1
    2052     1932     1953 1
    2053     1933     1934 1
    2054     1933     1954 1
    2055     1933     1955 1
    2056     1934     1935 1
    2057     1934     1956 1
    2058     1934     1957 1
    2059     1935     1958 1
    2060     1935     1959 1
    2061     1935     1960 1
@<TRIPOS>SUBSTRUCTURE
       1 RES             1 RESIDUE    0 **** ROOT      0
