@<TRIPOS>MOLECULE
RES
1452 1501 1 0 1
SMALL
NO_CHARGES
@<TRIPOS>CRYSIN
   58.9794    72.4062    69.4414    90.0000    90.0000    90.0000 1 1
@<TRIPOS>ATOM
       1 C0          10.1587     9.4980     8.7322 C0            1 RES     
       2 C1           9.1418     9.2070     9.8578 C1            1 RES     
       3 C1           9.7005     9.2883    11.0933 C1            1 RES     
       4 S2           8.6479     8.8882    12.3320 S2            1 RES     
       5 C1           7.3904     8.5422    11.2412 C1            1 RES     
       6 C1           7.8175     8.7428     9.9240 C1            1 RES     
       7 C1          11.0728     9.5882    10.9533 C1            1 RES     
       8 C1          11.3893     9.6295     9.6308 C1            1 RES     
       9 C1          12.7546     9.7786     9.4187 C1            1 RES     
      10 C1          13.4368     9.8832    10.6426 C1            1 RES     
      11 S2          12.3786     9.7762    11.9663 S2            1 RES     
      12 H3           7.1893     8.5042     9.0869 H3            1 RES     
      13 H3          13.2255     9.8047     8.4433 H3            1 RES     
      14 N4          16.8598    11.1173    11.5428 N4            1 RES     
      15 C1          15.5093    11.0917    11.3437 C1            1 RES     
      16 C1          14.8832     9.9474    10.8199 C1            1 RES     
      17 C1          15.6772     8.8357    10.5326 C1            1 RES     
      18 N4          15.1924     7.6517    10.0781 N4            1 RES     
      19 S2          16.5580     6.7249     9.9886 S2            1 RES     
      20 N4          17.7602     7.7427    10.4957 N4            1 RES     
      21 C1          17.0745     8.8807    10.7667 C1            1 RES     
      22 C1          17.6536    10.0458    11.2626 C1            1 RES     
      23 H5          14.9186    11.9709    11.5860 H5            1 RES     
      24 C0          10.0208    10.8110     7.8838 C0            1 RES     
      25 C0          10.2874    12.3126     8.2788 C0            1 RES     
      26 C0           9.8416    13.1495     7.0285 C0            1 RES     
      27 C0          10.0572    14.6664     7.0980 C0            1 RES     
      28 C0           9.5353    15.3915     5.8352 C0            1 RES     
      29 C0          10.2280    15.0130     4.5075 C0            1 RES     
      30 C0          11.7582    15.1761     4.5056 C0            1 RES     
      31 C0          12.2126    16.6070     4.8442 C0            1 RES     
      32 C0          13.7401    16.7537     4.8966 C0            1 RES     
      33 C0          14.4133    16.5720     3.5257 C0            1 RES     
      34 C0          15.9272    16.8339     3.5685 C0            1 RES     
      35 C0          16.6909    15.8160     4.4164 C0            1 RES     
      36 C0           9.6901    12.8797     9.6080 C0            1 RES     
      37 C0           8.1417    12.9799     9.7664 C0            1 RES     
      38 C0           7.7119    12.1449    10.9764 C0            1 RES     
      39 C0           6.2282    11.8258    11.1364 C0            1 RES     
      40 C0           5.3579    12.9283    11.7217 C0            1 RES     
      41 C0           3.9203    12.3798    11.8389 C0            1 RES     
      42 C0           2.9544    13.3002    12.5886 C0            1 RES     
      43 C0           3.2929    13.4082    14.0769 C0            1 RES     
      44 H6           9.0309    10.8174     7.5046 H6            1 RES     
      45 H6          10.7064    10.6515     7.0211 H6            1 RES     
      46 H6          11.3887    12.4184     8.3993 H6            1 RES     
      47 H6           8.7584    12.9810     6.8420 H6            1 RES     
      48 H6          10.3975    12.7636     6.1473 H6            1 RES     
      49 H6          11.1304    14.8917     7.2633 H6            1 RES     
      50 H6           9.4794    15.0785     7.9498 H6            1 RES     
      51 H6           9.6420    16.4842     5.9961 H6            1 RES     
      52 H6           8.4460    15.1949     5.7230 H6            1 RES     
      53 H6           9.7958    15.6459     3.7006 H6            1 RES     
      54 H6           9.9920    13.9585     4.2494 H6            1 RES     
      55 H6          12.2030    14.4656     5.2339 H6            1 RES     
      56 H6          12.1185    14.8941     3.4945 H6            1 RES     
      57 H6          11.8421    16.8704     5.8558 H6            1 RES     
      58 H6          11.7847    17.3303     4.1159 H6            1 RES     
      59 H6          13.9660    17.7801     5.2595 H6            1 RES     
      60 H6          14.1398    16.0276     5.6353 H6            1 RES     
      61 H6          14.2383    15.5505     3.1290 H6            1 RES     
      62 H6          13.9633    17.3042     2.8203 H6            1 RES     
      63 H6          16.1218    17.8595     3.9514 H6            1 RES     
      64 H6          16.3176    16.7735     2.5297 H6            1 RES     
      65 H6          16.3831    15.8637     5.4804 H6            1 RES     
      66 H6          16.5196    14.7893     4.0287 H6            1 RES     
      67 H6          17.7775    16.0378     4.3664 H6            1 RES     
      68 H6          10.0923    13.9062     9.7456 H6            1 RES     
      69 H6          10.1470    12.3278    10.4572 H6            1 RES     
      70 H6           7.8301    14.0338     9.9433 H6            1 RES     
      71 H6           7.6403    12.6215     8.8445 H6            1 RES     
      72 H6           8.1528    12.5186    11.9245 H6            1 RES     
      73 H6           8.1433    11.1868    10.7783 H6            1 RES     
      74 H6           5.8320    11.4789    10.1789 H6            1 RES     
      75 H6           6.1669    10.9694    11.8459 H6            1 RES     
      76 H6           5.7702    13.1751    12.7230 H6            1 RES     
      77 H6           5.3724    13.8383    11.0854 H6            1 RES     
      78 H6           3.5312    12.2133    10.8088 H6            1 RES     
      79 H6           3.9203    11.3956    12.3604 H6            1 RES     
      80 H6           1.9372    12.8569    12.5116 H6            1 RES     
      81 H6           2.9363    14.3055    12.1176 H6            1 RES     
      82 H6           4.2823    13.8806    14.2356 H6            1 RES     
      83 H6           2.5272    14.0273    14.5869 H6            1 RES     
      84 H6           3.2940    12.3976    14.5432 H6            1 RES     
      85 C0          10.1559     8.2015     7.8296 C0            1 RES     
      86 C0           9.6151     8.1128     6.3310 C0            1 RES     
      87 C0           9.3054     6.6016     6.0613 C0            1 RES     
      88 C0           9.0218     6.2315     4.5914 C0            1 RES     
      89 C0           8.6994     4.7422     4.3764 C0            1 RES     
      90 C0           9.8027     3.7526     4.7916 C0            1 RES     
      91 C0          11.1841     4.0150     4.1691 C0            1 RES     
      92 C0          11.1713     4.0202     2.6303 C0            1 RES     
      93 C0          12.5582     4.2888     2.0240 C0            1 RES     
      94 C0          13.5614     3.1540     2.2977 C0            1 RES     
      95 C0          14.9090     3.3602     1.5887 C0            1 RES     
      96 C0          15.6826     4.5738     2.1043 C0            1 RES     
      97 C0           8.4976     9.0475     5.7029 C0            1 RES     
      98 C0           7.0144     8.9823     6.1653 C0            1 RES     
      99 C0           6.6144    10.1954     7.0242 C0            1 RES     
     100 C0           5.2006    10.1986     7.5818 C0            1 RES     
     101 C0           4.0704    10.4627     6.5969 C0            1 RES     
     102 C0           2.7730    10.5889     7.4214 C0            1 RES     
     103 C0           1.5450    11.0095     6.6119 C0            1 RES     
     104 C0           1.6541    12.4446     6.0945 C0            1 RES     
     105 H6           9.7017     7.3731     8.4216 H6            1 RES     
     106 H6          11.2089     7.8460     7.7603 H6            1 RES     
     107 H6          10.5037     8.3830     5.7150 H6            1 RES     
     108 H6           8.4332     6.2942     6.6778 H6            1 RES     
     109 H6          10.1851     6.0104     6.3952 H6            1 RES     
     110 H6           9.8869     6.5317     3.9637 H6            1 RES     
     111 H6           8.1220     6.7641     4.2272 H6            1 RES     
     112 H6           8.4734     4.5977     3.2983 H6            1 RES     
     113 H6           7.7734     4.4840     4.9358 H6            1 RES     
     114 H6           9.4651     2.7303     4.5132 H6            1 RES     
     115 H6           9.9138     3.7702     5.8968 H6            1 RES     
     116 H6          11.5778     4.9874     4.5348 H6            1 RES     
     117 H6          11.8574     3.2158     4.5406 H6            1 RES     
     118 H6          10.5056     4.8363     2.2796 H6            1 RES     
     119 H6          10.7730     3.0567     2.2450 H6            1 RES     
     120 H6          12.4318     4.3814     0.9233 H6            1 RES     
     121 H6          12.9380     5.2573     2.4132 H6            1 RES     
     122 H6          13.7474     3.0407     3.3856 H6            1 RES     
     123 H6          13.1224     2.2060     1.9170 H6            1 RES     
     124 H6          14.7473     3.4580     0.4932 H6            1 RES     
     125 H6          15.5324     2.4576     1.7670 H6            1 RES     
     126 H6          15.1334     5.5163     1.9064 H6            1 RES     
     127 H6          15.8674     4.4761     3.1953 H6            1 RES     
     128 H6          16.6612     4.6328     1.5831 H6            1 RES     
     129 H6           8.4805     8.7793     4.6306 H6            1 RES     
     130 H6           8.8278    10.0952     5.5725 H6            1 RES     
     131 H6           6.3740     9.0640     5.2595 H6            1 RES     
     132 H6           6.7904     8.0074     6.6437 H6            1 RES     
     133 H6           6.8034    11.1408     6.4667 H6            1 RES     
     134 H6           7.2124    10.2166     7.9284 H6            1 RES     
     135 H6           5.0207     9.2674     8.1618 H6            1 RES     
     136 H6           5.1704    11.0624     8.2662 H6            1 RES     
     137 H6           4.2939    11.4157     6.0724 H6            1 RES     
     138 H6           3.9882     9.6448     5.8511 H6            1 RES     
     139 H6           2.5695     9.6038     7.8961 H6            1 RES     
     140 H6           2.9057    11.3347     8.2388 H6            1 RES     
     141 H6           0.6685    10.9675     7.2952 H6            1 RES     
     142 H6           1.3778    10.3015     5.7761 H6            1 RES     
     143 H6           2.4871    12.5527     5.3718 H6            1 RES     
     144 H6           0.7107    12.7213     5.5807 H6            1 RES     
     145 H6           1.8125    13.1482     6.9411 H6            1 RES     
     146 C0          22.9945    10.8050    10.5719 C0            1 RES     
     147 C1          21.5805    10.5370    11.1329 C1            1 RES     
     148 C1          21.6125     9.9754    12.3693 C1            1 RES     
     149 S2          20.0982     9.5871    12.9680 S2            1 RES     
     150 C1          19.3269    10.1260    11.5518 C1            1 RES     
     151 C1          20.2695    10.5983    10.6319 C1            1 RES     
     152 C1          22.9590     9.7801    12.7457 C1            1 RES     
     153 C1          23.7696    10.1571    11.7202 C1            1 RES     
     154 C1          25.1047     9.8590    11.9651 C1            1 RES     
     155 C1          25.2566     9.2763    13.2345 C1            1 RES     
     156 S2          23.7689     9.1138    14.0368 S2            1 RES     
     157 H3          19.9843    10.9117     9.6456 H3            1 RES     
     158 H3          25.9136    10.0463    11.2690 H3            1 RES     
     159 N4          28.2326     8.7770    15.4582 N4            1 RES     
     160 C1          27.0995     9.3185    14.9226 C1            1 RES     
     161 C1          26.4925     8.7405    13.7942 C1            1 RES     
     162 C1          27.0678     7.5886    13.2546 C1            1 RES     
     163 N4          26.5510     6.9006    12.2044 N4            1 RES     
     164 S2          27.5999     5.6306    12.0671 S2            1 RES     
     165 N4          28.6996     5.8941    13.2752 N4            1 RES     
     166 C1          28.2333     7.0346    13.8411 C1            1 RES     
     167 C1          28.8138     7.6575    14.9428 C1            1 RES     
     168 H5          26.6718    10.2107    15.3719 H5            1 RES     
     169 C0          23.4951    12.2831    10.4067 C0            1 RES     
     170 C0          23.9108    13.3460    11.4926 C0            1 RES     
     171 C0          24.1889    14.6646    10.6886 C0            1 RES     
     172 C0          24.6902    15.8719    11.4907 C0            1 RES     
     173 C0          24.8804    17.1261    10.6055 C0            1 RES     
     174 C0          25.9359    17.0045     9.4843 C0            1 RES     
     175 C0          27.3388    16.5854     9.9579 C0            1 RES     
     176 C0          27.9286    17.5379    11.0131 C0            1 RES     
     177 C0          29.3042    17.0869    11.5249 C0            1 RES     
     178 C0          30.4028    17.1573    10.4508 C0            1 RES     
     179 C0          31.7955    16.8142    11.0029 C0            1 RES     
     180 C0          31.9191    15.3619    11.4655 C0            1 RES     
     181 C0          22.9817    13.5951    12.7254 C0            1 RES     
     182 C0          21.5595    14.1942    12.4995 C0            1 RES     
     183 C0          20.5160    13.2120    13.0404 C0            1 RES     
     184 C0          19.0580    13.4246    12.6431 C0            1 RES     
     185 C0          18.2957    14.4934    13.4125 C0            1 RES     
     186 C0          16.8448    14.5058    12.8871 C0            1 RES     
     187 C0          15.8922    15.3955    13.6891 C0            1 RES     
     188 C0          15.6344    14.8502    15.0953 C0            1 RES     
     189 H6          22.7616    12.7824     9.8266 H6            1 RES     
     190 H6          24.4104    12.1924     9.7790 H6            1 RES     
     191 H6          24.8702    12.9923    11.9321 H6            1 RES     
     192 H6          23.2577    14.9804    10.1692 H6            1 RES     
     193 H6          24.9454    14.4323     9.9088 H6            1 RES     
     194 H6          25.6333    15.6162    12.0151 H6            1 RES     
     195 H6          23.9314    16.1451    12.2516 H6            1 RES     
     196 H6          25.1546    17.9753    11.2650 H6            1 RES     
     197 H6          23.9084    17.3942    10.1351 H6            1 RES     
     198 H6          26.0069    17.9885     8.9695 H6            1 RES     
     199 H6          25.5928    16.2692     8.7253 H6            1 RES     
     200 H6          27.2927    15.5569    10.3739 H6            1 RES     
     201 H6          27.9947    16.5594     9.0631 H6            1 RES     
     202 H6          27.2593    17.5515    11.8973 H6            1 RES     
     203 H6          27.9926    18.5713    10.6073 H6            1 RES     
     204 H6          29.5909    17.7654    12.3578 H6            1 RES     
     205 H6          29.2103    16.0579    11.9309 H6            1 RES     
     206 H6          30.1759    16.4762     9.6046 H6            1 RES     
     207 H6          30.4401    18.1986    10.0628 H6            1 RES     
     208 H6          32.0463    17.4964    11.8443 H6            1 RES     
     209 H6          32.5383    16.9781    10.1926 H6            1 RES     
     210 H6          31.2374    15.1480    12.3132 H6            1 RES     
     211 H6          31.6908    14.6718    10.6256 H6            1 RES     
     212 H6          32.9579    15.1727    11.8083 H6            1 RES     
     213 H6          23.5142    14.2870    13.4126 H6            1 RES     
     214 H6          22.9341    12.6574    13.3194 H6            1 RES     
     215 H6          21.4454    15.1576    13.0454 H6            1 RES     
     216 H6          21.3942    14.3870    11.4201 H6            1 RES     
     217 H6          20.6204    13.0455    14.1332 H6            1 RES     
     218 H6          20.7666    12.2948    12.5512 H6            1 RES     
     219 H6          19.0031    13.6011    11.5661 H6            1 RES     
     220 H6          18.5351    12.4619    12.8443 H6            1 RES     
     221 H6          18.3255    14.2094    14.4857 H6            1 RES     
     222 H6          18.7599    15.4942    13.2856 H6            1 RES     
     223 H6          16.8647    14.8607    11.8316 H6            1 RES     
     224 H6          16.4221    13.4753    12.8863 H6            1 RES     
     225 H6          14.9162    15.4118    13.1560 H6            1 RES     
     226 H6          16.2836    16.4334    13.7377 H6            1 RES     
     227 H6          16.5600    14.8409    15.7038 H6            1 RES     
     228 H6          14.8879    15.4892    15.6092 H6            1 RES     
     229 H6          15.2285    13.8156    15.0358 H6            1 RES     
     230 C0          23.0589     9.9981     9.2153 C0            1 RES     
     231 C0          23.1445    10.6378     7.7560 C0            1 RES     
     232 C0          22.6390     9.5391     6.7612 C0            1 RES     
     233 C0          22.8806     9.8315     5.2665 C0            1 RES     
     234 C0          22.3472     8.7374     4.3248 C0            1 RES     
     235 C0          22.9499     7.3348     4.5205 C0            1 RES     
     236 C0          24.4855     7.2706     4.4710 C0            1 RES     
     237 C0          25.0790     7.8118     3.1584 C0            1 RES     
     238 C0          26.6146     7.7454     3.1270 C0            1 RES     
     239 C0          27.1513     6.3029     3.1101 C0            1 RES     
     240 C0          28.6782     6.2325     2.9526 C0            1 RES     
     241 C0          29.4354     6.8192     4.1441 C0            1 RES     
     242 C0          22.6004    12.0718     7.3503 C0            1 RES     
     243 C0          21.0804    12.3990     7.3258 C0            1 RES     
     244 C0          20.6551    13.2965     8.5018 C0            1 RES     
     245 C0          19.1749    13.6244     8.6076 C0            1 RES     
     246 C0          18.6109    14.6072     7.5911 C0            1 RES     
     247 C0          17.1571    14.9064     8.0106 C0            1 RES     
     248 C0          16.4717    15.9995     7.1887 C0            1 RES     
     249 C0          17.0900    17.3782     7.4256 C0            1 RES     
     250 H6          22.2376     9.2442     9.2260 H6            1 RES     
     251 H6          23.9473     9.3292     9.2717 H6            1 RES     
     252 H6          24.2393    10.7586     7.5863 H6            1 RES     
     253 H6          21.5504     9.3799     6.9187 H6            1 RES     
     254 H6          23.1623     8.5906     7.0091 H6            1 RES     
     255 H6          23.9657     9.9909     5.0942 H6            1 RES     
     256 H6          22.3382    10.7471     4.9609 H6            1 RES     
     257 H6          22.5364     9.0681     3.2813 H6            1 RES     
     258 H6          21.2438     8.6602     4.4419 H6            1 RES     
     259 H6          22.5313     6.6716     3.7321 H6            1 RES     
     260 H6          22.6194     6.9271     5.4996 H6            1 RES     
     261 H6          24.9089     7.8399     5.3259 H6            1 RES     
     262 H6          24.7638     6.2051     4.6027 H6            1 RES     
     263 H6          24.8032     8.8820     3.0541 H6            1 RES     
     264 H6          24.6612     7.2586     2.2896 H6            1 RES     
     265 H6          26.9541     8.2523     2.1976 H6            1 RES     
     266 H6          27.0155     8.3083     3.9966 H6            1 RES     
     267 H6          26.8654     5.7608     4.0349 H6            1 RES     
     268 H6          26.6988     5.7765     2.2415 H6            1 RES     
     269 H6          28.9854     6.7550     2.0207 H6            1 RES     
     270 H6          28.9648     5.1627     2.8598 H6            1 RES     
     271 H6          29.2316     7.9030     4.2577 H6            1 RES     
     272 H6          29.1507     6.2898     5.0783 H6            1 RES     
     273 H6          30.5266     6.6918     3.9833 H6            1 RES     
     274 H6          22.9464    12.2171     6.3105 H6            1 RES     
     275 H6          23.1784    12.9010     7.7998 H6            1 RES     
     276 H6          20.8822    13.0174     6.4227 H6            1 RES     
     277 H6          20.4767    11.4735     7.2338 H6            1 RES     
     278 H6          21.2520    14.2367     8.5039 H6            1 RES     
     279 H6          20.8388    12.7831     9.4390 H6            1 RES     
     280 H6          18.5804    12.6854     8.6335 H6            1 RES     
     281 H6          19.0707    14.1450     9.5738 H6            1 RES     
     282 H6          19.2273    15.5299     7.6338 H6            1 RES     
     283 H6          18.6489    14.1886     6.5638 H6            1 RES     
     284 H6          16.5709    13.9659     7.9161 H6            1 RES     
     285 H6          17.1201    15.2194     9.0795 H6            1 RES     
     286 H6          15.4118    16.0481     7.5222 H6            1 RES     
     287 H6          16.4935    15.7382     6.1122 H6            1 RES     
     288 H6          18.1412    17.4162     7.0771 H6            1 RES     
     289 H6          16.5107    18.1405     6.8654 H6            1 RES     
     290 H6          17.0551    17.6352     8.5071 H6            1 RES     
     291 C0          34.0209     6.5955    16.0988 C0            1 RES     
     292 C1          32.4792     6.6880    16.0847 C1            1 RES     
     293 C1          31.8982     5.7636    16.8929 C1            1 RES     
     294 S2          30.2253     5.7760    16.8302 S2            1 RES     
     295 C1          30.2119     7.0138    15.6646 C1            1 RES     
     296 C1          31.5189     7.3945    15.3415 C1            1 RES     
     297 C1          32.9092     4.9715    17.4786 C1            1 RES     
     298 C1          34.1188     5.3548    16.9877 C1            1 RES     
     299 C1          35.1486     4.5235    17.4119 C1            1 RES     
     300 C1          34.6570     3.5255    18.2701 C1            1 RES     
     301 S2          32.9781     3.6529    18.4901 S2            1 RES     
     302 H3          31.7208     8.1108    14.5678 H3            1 RES     
     303 H3          36.1853     4.6296    17.1155 H3            1 RES     
     304 N4          36.3306     1.2351    20.7203 N4            1 RES     
     305 C1          35.6491     2.3032    20.2115 C1            1 RES     
     306 C1          35.4220     2.4164    18.8290 C1            1 RES     
     307 C1          35.8920     1.3972    17.9989 C1            1 RES     
     308 N4          35.6904     1.3552    16.6569 N4            1 RES     
     309 S2          36.3992    -0.0786    16.2405 S2            1 RES     
     310 N4          36.9654    -0.6716    17.6779 N4            1 RES     
     311 C1          36.5797     0.2888    18.5539 C1            1 RES     
     312 C1          36.8036     0.2333    19.9271 C1            1 RES     
     313 H5          35.2887     3.0752    20.8859 H5            1 RES     
     314 C0          34.8602     7.7460    16.7580 C0            1 RES     
     315 C0          35.0407     8.1365    18.2736 C0            1 RES     
     316 C0          35.8965     9.4516    18.2577 C0            1 RES     
     317 C0          36.2968    10.0336    19.6191 C0            1 RES     
     318 C0          37.0919    11.3535    19.4819 C0            1 RES     
     319 C0          38.4471    11.2493    18.7482 C0            1 RES     
     320 C0          39.4208    10.2096    19.3303 C0            1 RES     
     321 C0          39.7444    10.4515    20.8154 C0            1 RES     
     322 C0          40.6717     9.3810    21.4084 C0            1 RES     
     323 C0          42.0895     9.4107    20.8130 C0            1 RES     
     324 C0          43.0401     8.4131    21.4938 C0            1 RES     
     325 C0          42.6472     6.9534    21.2634 C0            1 RES     
     326 C0          33.7827     8.2658    19.1933 C0            1 RES     
     327 C0          32.7344     9.3825    18.8987 C0            1 RES     
     328 C0          31.3731     8.7293    18.6415 C0            1 RES     
     329 C0          30.2745     9.5844    18.0166 C0            1 RES     
     330 C0          29.5288    10.5210    18.9559 C0            1 RES     
     331 C0          28.4425    11.2449    18.1330 C0            1 RES     
     332 C0          27.4746    12.0852    18.9692 C0            1 RES     
     333 C0          26.5718    11.2224    19.8534 C0            1 RES     
     334 H6          34.5436     8.6466    16.2971 H6            1 RES     
     335 H6          35.9034     7.5494    16.4221 H6            1 RES     
     336 H6          35.6463     7.3275    18.7398 H6            1 RES     
     337 H6          35.3390    10.2451    17.7136 H6            1 RES     
     338 H6          36.8264     9.2434    17.6864 H6            1 RES     
     339 H6          36.8764     9.2859    20.1978 H6            1 RES     
     340 H6          35.3815    10.2845    20.1922 H6            1 RES     
     341 H6          37.2660    11.7586    20.5002 H6            1 RES     
     342 H6          36.4681    12.1037    18.9473 H6            1 RES     
     343 H6          38.9305    12.2514    18.7732 H6            1 RES     
     344 H6          38.2758    11.0023    17.6786 H6            1 RES     
     345 H6          38.9886     9.1941    19.2075 H6            1 RES     
     346 H6          40.3517    10.2562    18.7279 H6            1 RES     
     347 H6          38.8029    10.4027    21.3995 H6            1 RES     
     348 H6          40.1897    11.4611    20.9538 H6            1 RES     
     349 H6          40.7511     9.5740    22.5005 H6            1 RES     
     350 H6          40.2005     8.3861    21.2643 H6            1 RES     
     351 H6          42.0680     9.1980    19.7241 H6            1 RES     
     352 H6          42.5057    10.4307    20.9632 H6            1 RES     
     353 H6          43.0849     8.6197    22.5854 H6            1 RES     
     354 H6          44.0574     8.5628    21.0721 H6            1 RES     
     355 H6          41.6586     6.7252    21.7103 H6            1 RES     
     356 H6          42.6200     6.7312    20.1754 H6            1 RES     
     357 H6          43.3981     6.2908    21.7425 H6            1 RES     
     358 H6          34.1417     8.4307    20.2317 H6            1 RES     
     359 H6          33.2994     7.2678    19.2628 H6            1 RES     
     360 H6          32.6319    10.0678    19.7698 H6            1 RES     
     361 H6          33.0532     9.9828    18.0225 H6            1 RES     
     362 H6          31.0006     8.1693    19.5250 H6            1 RES     
     363 H6          31.5855     8.0143    17.8754 H6            1 RES     
     364 H6          30.6872    10.1294    17.1641 H6            1 RES     
     365 H6          29.5155     8.8748    17.6154 H6            1 RES     
     366 H6          29.0714     9.8936    19.7500 H6            1 RES     
     367 H6          30.2148    11.2593    19.4223 H6            1 RES     
     368 H6          28.9530    11.9091    17.3992 H6            1 RES     
     369 H6          27.8371    10.5098    17.5552 H6            1 RES     
     370 H6          26.8160    12.6412    18.2662 H6            1 RES     
     371 H6          28.0349    12.8216    19.5829 H6            1 RES     
     372 H6          27.1573    10.6648    20.6108 H6            1 RES     
     373 H6          25.8453    11.8702    20.3847 H6            1 RES     
     374 H6          26.0036    10.4979    19.2282 H6            1 RES     
     375 C0          34.4320     6.3439    14.5944 C0            1 RES     
     376 C0          35.2227     7.3697    13.6623 C0            1 RES     
     377 C0          34.9184     6.9497    12.1847 C0            1 RES     
     378 C0          35.7853     7.6306    11.1064 C0            1 RES     
     379 C0          35.4362     7.2065     9.6689 C0            1 RES     
     380 C0          35.5868     5.7064     9.3592 C0            1 RES     
     381 C0          36.9628     5.1054     9.6909 C0            1 RES     
     382 C0          38.1276     5.8094     8.9727 C0            1 RES     
     383 C0          39.4960     5.2003     9.3187 C0            1 RES     
     384 C0          39.6623     3.7634     8.7925 C0            1 RES     
     385 C0          41.0716     3.1976     9.0270 C0            1 RES     
     386 C0          41.4100     3.0151    10.5066 C0            1 RES     
     387 C0          35.2139     8.9481    13.8226 C0            1 RES     
     388 C0          33.9391     9.7960    13.5510 C0            1 RES     
     389 C0          33.2968    10.3206    14.8478 C0            1 RES     
     390 C0          32.0065    11.1095    14.6980 C0            1 RES     
     391 C0          32.1196    12.5166    14.1282 C0            1 RES     
     392 C0          30.7235    13.1626    14.2398 C0            1 RES     
     393 C0          30.6762    14.6422    13.8540 C0            1 RES     
     394 C0          31.4408    15.5247    14.8418 C0            1 RES     
     395 H6          33.5276     5.9899    14.0469 H6            1 RES     
     396 H6          35.0548     5.4211    14.5729 H6            1 RES     
     397 H6          36.2934     7.1317    13.8596 H6            1 RES     
     398 H6          33.8494     7.1566    11.9614 H6            1 RES     
     399 H6          35.0782     5.8530    12.1042 H6            1 RES     
     400 H6          36.8569     7.4304    11.3164 H6            1 RES     
     401 H6          35.6239     8.7259    11.1179 H6            1 RES     
     402 H6          36.0879     7.7837     8.9787 H6            1 RES     
     403 H6          34.3882     7.5035     9.4443 H6            1 RES     
     404 H6          35.3755     5.5594     8.2774 H6            1 RES     
     405 H6          34.8172     5.1368     9.9226 H6            1 RES     
     406 H6          37.1315     5.1465    10.7882 H6            1 RES     
     407 H6          36.9235     4.0375     9.3941 H6            1 RES     
     408 H6          38.1594     6.8710     9.2955 H6            1 RES     
     409 H6          37.9729     5.7850     7.8723 H6            1 RES     
     410 H6          40.2762     5.8351     8.8449 H6            1 RES     
     411 H6          39.6375     5.2391    10.4197 H6            1 RES     
     412 H6          38.9240     3.0801     9.2604 H6            1 RES     
     413 H6          39.4824     3.7748     7.6953 H6            1 RES     
     414 H6          41.8272     3.8587     8.5496 H6            1 RES     
     415 H6          41.1268     2.2006     8.5391 H6            1 RES     
     416 H6          41.4236     3.9867    11.0403 H6            1 RES     
     417 H6          40.6720     2.3391    10.9887 H6            1 RES     
     418 H6          42.4190     2.5609    10.5982 H6            1 RES     
     419 H6          35.9630     9.3063    13.0929 H6            1 RES     
     420 H6          35.7373     9.2972    14.7325 H6            1 RES     
     421 H6          34.2535    10.7151    13.0090 H6            1 RES     
     422 H6          33.2312     9.2495    12.8954 H6            1 RES     
     423 H6          34.0372    10.9133    15.4316 H6            1 RES     
     424 H6          32.9794     9.4857    15.4625 H6            1 RES     
     425 H6          31.2576    10.5072    14.1392 H6            1 RES     
     426 H6          31.6498    11.2633    15.7298 H6            1 RES     
     427 H6          32.8576    13.0730    14.7438 H6            1 RES     
     428 H6          32.4639    12.4962    13.0733 H6            1 RES     
     429 H6          30.0289    12.5976    13.5799 H6            1 RES     
     430 H6          30.3404    13.0770    15.2828 H6            1 RES     
     431 H6          29.6100    14.9572    13.8821 H6            1 RES     
     432 H6          31.0602    14.7807    12.8239 H6            1 RES     
     433 H6          32.5244    15.2930    14.8377 H6            1 RES     
     434 H6          31.3123    16.5891    14.5572 H6            1 RES     
     435 H6          31.0422    15.3856    15.8708 H6            1 RES     
     436 C0          40.7633    -2.9915    21.7979 C0            1 RES     
     437 C1          39.4129    -2.3419    21.4233 C1            1 RES     
     438 C1          38.3723    -3.2070    21.5415 C1            1 RES     
     439 S2          36.9063    -2.5618    21.0548 S2            1 RES     
     440 C1          37.6259    -1.0846    20.6178 C1            1 RES     
     441 C1          39.0039    -1.1228    20.8575 C1            1 RES     
     442 C1          38.8696    -4.4642    21.9476 C1            1 RES     
     443 C1          40.2270    -4.4065    22.0200 C1            1 RES     
     444 C1          40.7957    -5.6485    22.2756 C1            1 RES     
     445 C1          39.7989    -6.6273    22.4266 C1            1 RES     
     446 S2          38.2420    -5.9782    22.2313 S2            1 RES     
     447 H3          39.6463    -0.3105    20.5751 H3            1 RES     
     448 H3          41.8609    -5.8342    22.3430 H3            1 RES     
     449 N4          39.8242   -10.0661    23.9179 N4            1 RES     
     450 C1          39.6521    -8.7179    23.7887 C1            1 RES     
     451 C1          40.0169    -8.0589    22.6019 C1            1 RES     
     452 C1          40.5364    -8.8246    21.5566 C1            1 RES     
     453 N4          40.8736    -8.3228    20.3408 N4            1 RES     
     454 S2          41.3522    -9.6772    19.5232 S2            1 RES     
     455 N4          41.1622   -10.8939    20.6286 N4            1 RES     
     456 C1          40.6869   -10.2258    21.7086 C1            1 RES     
     457 C1          40.3357   -10.8306    22.9126 C1            1 RES     
     458 H5          39.2368    -8.1522    24.6182 H5            1 RES     
     459 C0          41.5088    -2.5330    23.1005 C0            1 RES     
     460 C0          41.1617    -2.7859    24.6163 C0            1 RES     
     461 C0          42.2233    -1.9578    25.4223 C0            1 RES     
     462 C0          42.1755    -2.0724    26.9510 C0            1 RES     
     463 C0          43.2314    -1.1762    27.6398 C0            1 RES     
     464 C0          44.7061    -1.5089    27.3228 C0            1 RES     
     465 C0          45.1166    -2.9651    27.6041 C0            1 RES     
     466 C0          44.8764    -3.3881    29.0642 C0            1 RES     
     467 C0          45.2343    -4.8576    29.3286 C0            1 RES     
     468 C0          46.7402    -5.1456    29.2065 C0            1 RES     
     469 C0          47.1007    -6.5910    29.5848 C0            1 RES     
     470 C0          46.5169    -7.6283    28.6250 C0            1 RES     
     471 C0          39.7065    -2.5313    25.1287 C0            1 RES     
     472 C0          39.1336    -1.0807    25.1077 C0            1 RES     
     473 C0          37.8745    -1.0573    24.2359 C0            1 RES     
     474 C0          37.3284     0.2999    23.8019 C0            1 RES     
     475 C0          36.5017     1.0574    24.8306 C0            1 RES     
     476 C0          36.0152     2.3652    24.1717 C0            1 RES     
     477 C0          35.0092     3.1566    25.0107 C0            1 RES     
     478 C0          33.6651     2.4363    25.1372 C0            1 RES     
     479 H6          41.6065    -1.4797    23.0320 H6            1 RES     
     480 H6          42.5283    -2.9689    22.9990 H6            1 RES     
     481 H6          41.3402    -3.8678    24.8066 H6            1 RES     
     482 H6          42.1149    -0.8800    25.1713 H6            1 RES     
     483 H6          43.2315    -2.2809    25.0851 H6            1 RES     
     484 H6          42.3001    -3.1308    27.2580 H6            1 RES     
     485 H6          41.1890    -1.7185    27.3128 H6            1 RES     
     486 H6          43.0771    -1.2421    28.7367 H6            1 RES     
     487 H6          43.0506    -0.1147    27.3599 H6            1 RES     
     488 H6          45.3499    -0.8290    27.9243 H6            1 RES     
     489 H6          44.9181    -1.2897    26.2545 H6            1 RES     
     490 H6          44.5539    -3.6415    26.9266 H6            1 RES     
     491 H6          46.1944    -3.0576    27.3559 H6            1 RES     
     492 H6          43.7959    -3.2874    29.2930 H6            1 RES     
     493 H6          45.4433    -2.7270    29.7558 H6            1 RES     
     494 H6          44.9194    -5.0976    30.3676 H6            1 RES     
     495 H6          44.6498    -5.4947    28.6320 H6            1 RES     
     496 H6          47.1012    -4.9449    28.1765 H6            1 RES     
     497 H6          47.2789    -4.4688    29.9052 H6            1 RES     
     498 H6          46.7582    -6.8064    30.6205 H6            1 RES     
     499 H6          48.2075    -6.6886    29.5601 H6            1 RES     
     500 H6          45.4085    -7.6178    28.6433 H6            1 RES     
     501 H6          46.8704    -7.4341    27.5900 H6            1 RES     
     502 H6          46.8525    -8.6414    28.9306 H6            1 RES     
     503 H6          39.6561    -2.8794    26.1826 H6            1 RES     
     504 H6          39.0266    -3.2404    24.6097 H6            1 RES     
     505 H6          38.8521    -0.7524    26.1334 H6            1 RES     
     506 H6          39.8950    -0.3759    24.7162 H6            1 RES     
     507 H6          37.0712    -1.7101    24.6379 H6            1 RES     
     508 H6          38.2064    -1.4879    23.3151 H6            1 RES     
     509 H6          38.1521     0.9143    23.4301 H6            1 RES     
     510 H6          36.6511     0.1037    22.9398 H6            1 RES     
     511 H6          35.6428     0.4084    25.1037 H6            1 RES     
     512 H6          37.0946     1.2826    25.7422 H6            1 RES     
     513 H6          36.9060     3.0057    23.9807 H6            1 RES     
     514 H6          35.5386     2.1518    23.1879 H6            1 RES     
     515 H6          34.8203     4.1212    24.4903 H6            1 RES     
     516 H6          35.4317     3.3753    26.0139 H6            1 RES     
     517 H6          33.7671     1.4783    25.6841 H6            1 RES     
     518 H6          32.9516     3.0783    25.6925 H6            1 RES     
     519 H6          33.2427     2.2348    24.1274 H6            1 RES     
     520 C0          41.6648    -2.8392    20.5097 C0            1 RES     
     521 C0          42.9637    -1.9206    20.3868 C0            1 RES     
     522 C0          43.1787    -1.6610    18.8575 C0            1 RES     
     523 C0          44.5266    -1.0176    18.4739 C0            1 RES     
     524 C0          44.6850    -0.7590    16.9652 C0            1 RES     
     525 C0          44.6086    -2.0030    16.0620 C0            1 RES     
     526 C0          45.5738    -3.1409    16.4339 C0            1 RES     
     527 C0          47.0514    -2.7112    16.4458 C0            1 RES     
     528 C0          48.0023    -3.8583    16.8241 C0            1 RES     
     529 C0          48.0388    -4.9785    15.7692 C0            1 RES     
     530 C0          49.0795    -6.0647    16.0828 C0            1 RES     
     531 C0          48.7606    -6.8579    17.3501 C0            1 RES     
     532 C0          43.2426    -0.6093    21.2352 C0            1 RES     
     533 C0          42.3990     0.6842    21.0528 C0            1 RES     
     534 C0          41.4330     0.9242    22.2270 C0            1 RES     
     535 C0          40.5147     2.1303    22.1177 C0            1 RES     
     536 C0          41.1509     3.5013    22.2983 C0            1 RES     
     537 C0          40.0040     4.5323    22.3194 C0            1 RES     
     538 C0          40.4410     5.9612    22.6476 C0            1 RES     
     539 C0          40.9314     6.1018    24.0894 C0            1 RES     
     540 H6          40.9938    -2.6245    19.6456 H6            1 RES     
     541 H6          42.0248    -3.8572    20.2372 H6            1 RES     
     542 H6          43.7894    -2.5867    20.7282 H6            1 RES     
     543 H6          42.3579    -1.0135    18.4803 H6            1 RES     
     544 H6          43.1099    -2.6391    18.3346 H6            1 RES     
     545 H6          45.3565    -1.6557    18.8434 H6            1 RES     
     546 H6          44.6206    -0.0162    18.9369 H6            1 RES     
     547 H6          45.6655    -0.2605    16.8090 H6            1 RES     
     548 H6          43.9034    -0.0408    16.6331 H6            1 RES     
     549 H6          44.8119    -1.6784    15.0180 H6            1 RES     
     550 H6          43.5743    -2.4078    16.0827 H6            1 RES     
     551 H6          45.3029    -3.5466    17.4320 H6            1 RES     
     552 H6          45.4185    -3.9464    15.6874 H6            1 RES     
     553 H6          47.1883    -1.9174    17.2095 H6            1 RES     
     554 H6          47.3397    -2.2951    15.4562 H6            1 RES     
     555 H6          49.0253    -3.4319    16.9122 H6            1 RES     
     556 H6          47.7051    -4.2573    17.8172 H6            1 RES     
     557 H6          47.0447    -5.4602    15.6652 H6            1 RES     
     558 H6          48.3113    -4.5235    14.7919 H6            1 RES     
     559 H6          50.0879    -5.6054    16.1733 H6            1 RES     
     560 H6          49.0994    -6.7775    15.2304 H6            1 RES     
     561 H6          48.7786    -6.2081    18.2482 H6            1 RES     
     562 H6          47.7629    -7.3381    17.2616 H6            1 RES     
     563 H6          49.5249    -7.6516    17.4875 H6            1 RES     
     564 H6          44.2771    -0.3219    20.9718 H6            1 RES     
     565 H6          43.4301    -0.8141    22.3060 H6            1 RES     
     566 H6          43.0960     1.5503    21.0892 H6            1 RES     
     567 H6          41.9032     0.6981    20.0611 H6            1 RES     
     568 H6          41.9962     0.9632    23.1869 H6            1 RES     
     569 H6          40.7234     0.1068    22.2899 H6            1 RES     
     570 H6          39.9319     2.0775    21.1725 H6            1 RES     
     571 H6          39.8255     2.0371    22.9731 H6            1 RES     
     572 H6          41.6915     3.4988    23.2684 H6            1 RES     
     573 H6          41.8678     3.7224    21.4802 H6            1 RES     
     574 H6          39.5176     4.5268    21.3191 H6            1 RES     
     575 H6          39.2337     4.2381    23.0691 H6            1 RES     
     576 H6          39.5478     6.6141    22.5343 H6            1 RES     
     577 H6          41.2187     6.2962    21.9329 H6            1 RES     
     578 H6          41.8490     5.5061    24.2654 H6            1 RES     
     579 H6          41.1643     7.1668    24.2947 H6            1 RES     
     580 H6          40.1411     5.7719    24.7989 H6            1 RES     
     581 C0          42.4220   -15.7139    24.0871 C0            1 RES     
     582 C1          41.5075   -14.5285    23.7075 C1            1 RES     
     583 C1          40.3405   -14.9354    23.1438 C1            1 RES     
     584 S2          39.3657   -13.6726    22.6363 S2            1 RES     
     585 C1          40.5068   -12.5091    23.1209 C1            1 RES     
     586 C1          41.6344   -13.1299    23.6694 C1            1 RES     
     587 C1          40.3465   -16.3440    23.0517 C1            1 RES     
     588 C1          41.5426   -16.8165    23.4955 C1            1 RES     
     589 C1          41.6749   -18.1861    23.3006 C1            1 RES     
     590 C1          40.5090   -18.7187    22.7251 C1            1 RES     
     591 S2          39.3395   -17.5201    22.4438 S2            1 RES     
     592 H3          42.4987   -12.5659    23.9647 H3            1 RES     
     593 H3          42.5583   -18.7601    23.5536 H3            1 RES     
     594 N4          39.1845   -22.2142    22.4470 N4            1 RES     
     595 C1          39.3803   -20.9418    22.9017 C1            1 RES     
     596 C1          40.3176   -20.0958    22.2840 C1            1 RES     
     597 C1          41.0219   -20.5861    21.1829 C1            1 RES     
     598 N4          41.9111   -19.8559    20.4621 N4            1 RES     
     599 S2          42.3591   -20.9185    19.2780 S2            1 RES     
     600 N4          41.4862   -22.2821    19.6199 N4            1 RES     
     601 C1          40.7862   -21.9043    20.7180 C1            1 RES     
     602 C1          39.8662   -22.7144    21.3785 C1            1 RES     
     603 H5          38.8094   -20.5877    23.7557 H5            1 RES     
     604 C0          42.6781   -16.0413    25.6004 C0            1 RES     
     605 C0          41.7175   -16.6567    26.6869 C0            1 RES     
     606 C0          42.5324   -16.6090    28.0271 C0            1 RES     
     607 C0          41.8644   -17.2190    29.2656 C0            1 RES     
     608 C0          42.7354   -17.0697    30.5352 C0            1 RES     
     609 C0          44.1026   -17.7879    30.5014 C0            1 RES     
     610 C0          44.0360   -19.2934    30.1900 C0            1 RES     
     611 C0          43.1549   -20.0757    31.1801 C0            1 RES     
     612 C0          43.0451   -21.5677    30.8346 C0            1 RES     
     613 C0          44.3736   -22.3259    30.9953 C0            1 RES     
     614 C0          44.2268   -23.8374    30.7584 C0            1 RES     
     615 C0          43.8524   -24.1878    29.3178 C0            1 RES     
     616 C0          40.2737   -16.0808    26.8571 C0            1 RES     
     617 C0          40.0919   -14.6106    27.3451 C0            1 RES     
     618 C0          39.3151   -13.8276    26.2823 C0            1 RES     
     619 C0          39.2986   -12.3050    26.3832 C0            1 RES     
     620 C0          38.3248   -11.7035    27.3858 C0            1 RES     
     621 C0          38.4387   -10.1677    27.2882 C0            1 RES     
     622 C0          37.3868    -9.4056    28.0974 C0            1 RES     
     623 C0          35.9777    -9.5792    27.5267 C0            1 RES     
     624 H6          43.0256   -15.1435    26.0442 H6            1 RES     
     625 H6          43.5315   -16.7563    25.5841 H6            1 RES     
     626 H6          41.5624   -17.7224    26.4064 H6            1 RES     
     627 H6          42.7729   -15.5514    28.2723 H6            1 RES     
     628 H6          43.4931   -17.1408    27.8580 H6            1 RES     
     629 H6          41.6208   -18.2850    29.0812 H6            1 RES     
     630 H6          40.9202   -16.6770    29.4753 H6            1 RES     
     631 H6          42.1527   -17.4494    31.3998 H6            1 RES     
     632 H6          42.9190   -15.9897    30.7294 H6            1 RES     
     633 H6          44.5919   -17.6444    31.4905 H6            1 RES     
     634 H6          44.7596   -17.3068    29.7455 H6            1 RES     
     635 H6          43.6497   -19.4373    29.1589 H6            1 RES     
     636 H6          45.0751   -19.6823    30.2194 H6            1 RES     
     637 H6          42.1229   -19.6719    31.1372 H6            1 RES     
     638 H6          43.5361   -19.9514    32.2174 H6            1 RES     
     639 H6          42.3032   -22.0188    31.5290 H6            1 RES     
     640 H6          42.6556   -21.6630    29.7993 H6            1 RES     
     641 H6          45.1445   -21.9287    30.3029 H6            1 RES     
     642 H6          44.7303   -22.1802    32.0383 H6            1 RES     
     643 H6          43.4669   -24.2560    31.4538 H6            1 RES     
     644 H6          45.2029   -24.3186    30.9835 H6            1 RES     
     645 H6          42.8580   -23.7789    29.0474 H6            1 RES     
     646 H6          44.6171   -23.7916    28.6163 H6            1 RES     
     647 H6          43.8076   -25.2915    29.2080 H6            1 RES     
     648 H6          39.7380   -16.7274    27.5846 H6            1 RES     
     649 H6          39.7133   -16.2648    25.9155 H6            1 RES     
     650 H6          39.5108   -14.5784    28.2941 H6            1 RES     
     651 H6          41.0814   -14.1453    27.5300 H6            1 RES     
     652 H6          38.2957   -14.2362    26.1189 H6            1 RES     
     653 H6          39.8773   -14.0028    25.3897 H6            1 RES     
     654 H6          40.3159   -11.9476    26.5603 H6            1 RES     
     655 H6          38.9887   -11.9283    25.3819 H6            1 RES     
     656 H6          37.3071   -12.0439    27.0996 H6            1 RES     
     657 H6          38.5463   -12.0414    28.4202 H6            1 RES     
     658 H6          39.4508    -9.8748    27.6489 H6            1 RES     
     659 H6          38.3520    -9.8373    26.2281 H6            1 RES     
     660 H6          37.6361    -8.3231    28.0407 H6            1 RES     
     661 H6          37.4188    -9.7184    29.1623 H6            1 RES     
     662 H6          35.6419   -10.6332    27.5862 H6            1 RES     
     663 H6          35.2651    -8.9551    28.1033 H6            1 RES     
     664 H6          35.9521    -9.2493    26.4640 H6            1 RES     
     665 C0          43.7661   -15.4672    23.2945 C0            1 RES     
     666 C0          45.1774   -15.1069    23.9461 C0            1 RES     
     667 C0          46.0269   -14.4327    22.8165 C0            1 RES     
     668 C0          47.5233   -14.2381    23.1342 C0            1 RES     
     669 C0          48.3140   -13.5511    22.0068 C0            1 RES     
     670 C0          48.3245   -14.2855    20.6542 C0            1 RES     
     671 C0          48.7881   -15.7506    20.7095 C0            1 RES     
     672 C0          50.1978   -15.9248    21.3017 C0            1 RES     
     673 C0          50.6440   -17.3950    21.3547 C0            1 RES     
     674 C0          50.8424   -18.0113    19.9583 C0            1 RES     
     675 C0          51.4078   -19.4393    20.0073 C0            1 RES     
     676 C0          50.4501   -20.4459    20.6449 C0            1 RES     
     677 C0          45.3840   -14.3697    25.3356 C0            1 RES     
     678 C0          44.9890   -12.8802    25.5441 C0            1 RES     
     679 C0          43.7191   -12.7249    26.4000 C0            1 RES     
     680 C0          43.2094   -11.3089    26.6117 C0            1 RES     
     681 C0          44.0103   -10.4201    27.5528 C0            1 RES     
     682 C0          43.2066    -9.1165    27.7363 C0            1 RES     
     683 C0          43.7845    -8.1558    28.7771 C0            1 RES     
     684 C0          43.6877    -8.7125    30.1983 C0            1 RES     
     685 H6          43.5537   -14.7370    22.4791 H6            1 RES     
     686 H6          43.9688   -16.3842    22.6962 H6            1 RES     
     687 H6          45.6330   -16.1029    24.1524 H6            1 RES     
     688 H6          45.5856   -13.4422    22.5726 H6            1 RES     
     689 H6          45.9540   -15.0717    21.9103 H6            1 RES     
     690 H6          47.9778   -15.2212    23.3782 H6            1 RES     
     691 H6          47.6474   -13.5676    24.0066 H6            1 RES     
     692 H6          49.3610   -13.4257    22.3565 H6            1 RES     
     693 H6          47.9056   -12.5295    21.8437 H6            1 RES     
     694 H6          48.9876   -13.7186    19.9645 H6            1 RES     
     695 H6          47.3034   -14.2634    20.2173 H6            1 RES     
     696 H6          48.0648   -16.3469    21.3057 H6            1 RES     
     697 H6          48.7639   -16.1314    19.6682 H6            1 RES     
     698 H6          50.1961   -15.5534    22.3478 H6            1 RES     
     699 H6          50.9356   -15.3289    20.7222 H6            1 RES     
     700 H6          51.6172   -17.4318    21.8910 H6            1 RES     
     701 H6          49.9007   -17.9742    21.9427 H6            1 RES     
     702 H6          49.8891   -18.0272    19.3910 H6            1 RES     
     703 H6          51.5699   -17.3801    19.4027 H6            1 RES     
     704 H6          52.3742   -19.4432    20.5567 H6            1 RES     
     705 H6          51.6021   -19.7676    18.9635 H6            1 RES     
     706 H6          50.2577   -20.2016    21.7091 H6            1 RES     
     707 H6          49.4877   -20.4646    20.0905 H6            1 RES     
     708 H6          50.9026   -21.4590    20.6034 H6            1 RES     
     709 H6          46.4745   -14.4094    25.5126 H6            1 RES     
     710 H6          45.0859   -14.9856    26.2049 H6            1 RES     
     711 H6          45.7889   -12.4000    26.1498 H6            1 RES     
     712 H6          44.9386   -12.3437    24.5750 H6            1 RES     
     713 H6          43.8539   -13.2295    27.3837 H6            1 RES     
     714 H6          42.8799   -13.1929    25.8977 H6            1 RES     
     715 H6          43.0484   -10.8141    25.6292 H6            1 RES     
     716 H6          42.2378   -11.4327    27.1178 H6            1 RES     
     717 H6          44.1117   -10.9557    28.5203 H6            1 RES     
     718 H6          45.0202   -10.2089    27.1436 H6            1 RES     
     719 H6          43.1636    -8.5972    26.7536 H6            1 RES     
     720 H6          42.1596    -9.3477    28.0401 H6            1 RES     
     721 H6          43.1763    -7.2253    28.7416 H6            1 RES     
     722 H6          44.8334    -7.9041    28.5236 H6            1 RES     
     723 H6          44.3059    -9.6241    30.3195 H6            1 RES     
     724 H6          44.0510    -7.9488    30.9162 H6            1 RES     
     725 H6          42.6307    -8.9532    30.4465 H6            1 RES     
     726 C0          40.1860   -28.1032    20.7177 C0            1 RES     
     727 C1          39.7811   -26.6129    20.6904 C1            1 RES     
     728 C1          38.8703   -26.3420    19.7197 C1            1 RES     
     729 S2          38.4790   -24.7186    19.6027 S2            1 RES     
     730 C1          39.5653   -24.2991    20.8415 C1            1 RES     
     731 C1          40.2192   -25.4381    21.3240 C1            1 RES     
     732 C1          38.5998   -27.5292    19.0055 C1            1 RES     
     733 C1          39.3888   -28.5290    19.4838 C1            1 RES     
     734 C1          39.2798   -29.6932    18.7328 C1            1 RES     
     735 C1          38.3468   -29.5271    17.6954 C1            1 RES     
     736 S2          37.6788   -27.9660    17.6911 S2            1 RES     
     737 H3          40.9999   -25.3696    22.0577 H3            1 RES     
     738 H3          39.8420   -30.6001    18.9205 H3            1 RES     
     739 N4          36.4991   -31.9654    15.5295 N4            1 RES     
     740 C1          36.7774   -31.0951    16.5441 C1            1 RES     
     741 C1          38.0439   -30.4941    16.6462 C1            1 RES     
     742 C1          38.9961   -30.7950    15.6706 C1            1 RES     
     743 N4          40.2345   -30.2408    15.6199 N4            1 RES     
     744 S2          40.8637   -30.9134    14.2475 S2            1 RES     
     745 N4          39.6481   -31.8898    13.6930 N4            1 RES     
     746 C1          38.6760   -31.6866    14.6162 C1            1 RES     
     747 C1          37.4161   -32.2778    14.5713 C1            1 RES     
     748 H5          36.0111   -30.8754    17.2824 H5            1 RES     
     749 C0          39.7482   -29.0031    21.9265 C0            1 RES     
     750 C0          38.3280   -29.5584    22.3222 C0            1 RES     
     751 C0          38.5402   -30.2792    23.6998 C0            1 RES     
     752 C0          37.3228   -30.9896    24.3043 C0            1 RES     
     753 C0          37.6353   -31.6188    25.6825 C0            1 RES     
     754 C0          38.7099   -32.7283    25.6874 C0            1 RES     
     755 C0          38.4391   -33.8968    24.7234 C0            1 RES     
     756 C0          37.0907   -34.5921    24.9823 C0            1 RES     
     757 C0          36.7977   -35.7213    23.9839 C0            1 RES     
     758 C0          37.7526   -36.9185    24.1264 C0            1 RES     
     759 C0          37.3796   -38.0885    23.2022 C0            1 RES     
     760 C0          37.5330   -37.7560    21.7175 C0            1 RES     
     761 C0          37.0999   -28.5908    22.3490 C0            1 RES     
     762 C0          37.0719   -27.4230    23.3825 C0            1 RES     
     763 C0          36.9689   -26.0946    22.6270 C0            1 RES     
     764 C0          37.2519   -24.8081    23.3975 C0            1 RES     
     765 C0          36.1224   -24.2784    24.2687 C0            1 RES     
     766 C0          36.6027   -22.9597    24.9103 C0            1 RES     
     767 C0          35.5149   -22.1957    25.6688 C0            1 RES     
     768 C0          34.4425   -21.6321    24.7342 C0            1 RES     
     769 H6          40.0832   -28.5083    22.8022 H6            1 RES     
     770 H6          40.3581   -29.9277    21.8131 H6            1 RES     
     771 H6          38.0635   -30.3253    21.5603 H6            1 RES     
     772 H6          38.8930   -29.5385    24.4504 H6            1 RES     
     773 H6          39.3464   -31.0321    23.5672 H6            1 RES     
     774 H6          36.9414   -31.7575    23.6009 H6            1 RES     
     775 H6          36.5177   -30.2480    24.4806 H6            1 RES     
     776 H6          36.6917   -32.0322    26.0948 H6            1 RES     
     777 H6          37.9622   -30.8202    26.3848 H6            1 RES     
     778 H6          38.7904   -33.1256    26.7238 H6            1 RES     
     779 H6          39.6996   -32.2921    25.4332 H6            1 RES     
     780 H6          38.4669   -33.5231    23.6781 H6            1 RES     
     781 H6          39.2690   -34.6236    24.8451 H6            1 RES     
     782 H6          36.2757   -33.8504    24.8576 H6            1 RES     
     783 H6          37.0516   -34.9831    26.0226 H6            1 RES     
     784 H6          35.7630   -36.0793    24.1771 H6            1 RES     
     785 H6          36.8351   -35.3030    22.9562 H6            1 RES     
     786 H6          38.8005   -36.6185    23.9182 H6            1 RES     
     787 H6          37.6941   -37.2840    25.1749 H6            1 RES     
     788 H6          36.3356   -38.4123    23.4062 H6            1 RES     
     789 H6          38.0561   -38.9397    23.4324 H6            1 RES     
     790 H6          36.8420   -36.9450    21.4112 H6            1 RES     
     791 H6          38.5787   -37.4513    21.4994 H6            1 RES     
     792 H6          37.2916   -38.6551    21.1128 H6            1 RES     
     793 H6          36.1930   -29.2047    22.5361 H6            1 RES     
     794 H6          36.9284   -28.2189    21.3162 H6            1 RES     
     795 H6          36.1879   -27.5104    24.0534 H6            1 RES     
     796 H6          37.9857   -27.4474    24.0101 H6            1 RES     
     797 H6          36.0324   -26.0175    22.0354 H6            1 RES     
     798 H6          37.7822   -26.1432    21.9344 H6            1 RES     
     799 H6          38.1698   -24.9333    23.9771 H6            1 RES     
     800 H6          37.4516   -24.0229    22.6332 H6            1 RES     
     801 H6          35.2508   -24.1006    23.6038 H6            1 RES     
     802 H6          35.8395   -25.0090    25.0557 H6            1 RES     
     803 H6          37.4296   -23.2021    25.6157 H6            1 RES     
     804 H6          37.0145   -22.2760    24.1334 H6            1 RES     
     805 H6          35.9996   -21.3324    26.1756 H6            1 RES     
     806 H6          35.0564   -22.8458    26.4433 H6            1 RES     
     807 H6          33.8859   -22.4402    24.2199 H6            1 RES     
     808 H6          33.7184   -21.0314    25.3210 H6            1 RES     
     809 H6          34.9097   -20.9704    23.9709 H6            1 RES     
     810 C0          41.7515   -28.1085    20.5063 C0            1 RES     
     811 C0          42.8355   -28.5396    21.5949 C0            1 RES     
     812 C0          44.1865   -27.8779    21.1600 C0            1 RES     
     813 C0          45.4408   -28.3678    21.9115 C0            1 RES     
     814 C0          46.7413   -27.6742    21.4688 C0            1 RES     
     815 C0          47.1187   -27.8448    19.9864 C0            1 RES     
     816 C0          47.1863   -29.2994    19.4923 C0            1 RES     
     817 C0          48.1737   -30.1711    20.2881 C0            1 RES     
     818 C0          48.2256   -31.6229    19.7852 C0            1 RES     
     819 C0          48.8140   -31.7452    18.3682 C0            1 RES     
     820 C0          48.9832   -33.2028    17.9122 C0            1 RES     
     821 C0          47.6550   -33.9420    17.7491 C0            1 RES     
     822 C0          42.6381   -28.4589    23.1670 C0            1 RES     
     823 C0          42.5337   -27.0996    23.9149 C0            1 RES     
     824 C0          41.0986   -26.7962    24.3816 C0            1 RES     
     825 C0          40.8742   -25.4593    25.0689 C0            1 RES     
     826 C0          41.4169   -25.3104    26.4833 C0            1 RES     
     827 C0          40.9161   -23.9533    27.0186 C0            1 RES     
     828 C0          41.2365   -23.6949    28.4919 C0            1 RES     
     829 C0          40.4692   -24.6317    29.4261 C0            1 RES     
     830 H6          42.0436   -27.1180    20.0859 H6            1 RES     
     831 H6          41.9641   -28.7681    19.6347 H6            1 RES     
     832 H6          42.9406   -29.6382    21.4397 H6            1 RES     
     833 H6          44.1077   -26.7762    21.2845 H6            1 RES     
     834 H6          44.3354   -28.0898    20.0794 H6            1 RES     
     835 H6          45.5330   -29.4679    21.7939 H6            1 RES     
     836 H6          45.3579   -28.1357    22.9909 H6            1 RES     
     837 H6          47.5666   -28.0704    22.0982 H6            1 RES     
     838 H6          46.6670   -26.5857    21.6848 H6            1 RES     
     839 H6          48.1068   -27.3595    19.8289 H6            1 RES     
     840 H6          46.3835   -27.3005    19.3561 H6            1 RES     
     841 H6          46.1745   -29.7557    19.5409 H6            1 RES     
     842 H6          47.4889   -29.2595    18.4261 H6            1 RES     
     843 H6          47.8441   -30.2113    21.3473 H6            1 RES     
     844 H6          49.1918   -29.7262    20.2573 H6            1 RES     
     845 H6          48.8758   -32.1967    20.4810 H6            1 RES     
     846 H6          47.2030   -32.0542    19.8293 H6            1 RES     
     847 H6          48.1821   -31.2135    17.6273 H6            1 RES     
     848 H6          49.8214   -31.2744    18.3710 H6            1 RES     
     849 H6          49.6295   -33.7502    18.6323 H6            1 RES     
     850 H6          49.4935   -33.1967    16.9250 H6            1 RES     
     851 H6          47.1198   -34.0284    18.7161 H6            1 RES     
     852 H6          47.0093   -33.4138    17.0155 H6            1 RES     
     853 H6          47.8508   -34.9685    17.3740 H6            1 RES     
     854 H6          43.5334   -28.9539    23.5860 H6            1 RES     
     855 H6          41.8945   -29.1823    23.5511 H6            1 RES     
     856 H6          43.1165   -27.1872    24.8583 H6            1 RES     
     857 H6          42.9878   -26.2826    23.3185 H6            1 RES     
     858 H6          40.7211   -27.6215    25.0271 H6            1 RES     
     859 H6          40.4428   -26.7193    23.5216 H6            1 RES     
     860 H6          41.2256   -24.6333    24.4131 H6            1 RES     
     861 H6          39.7809   -25.3853    25.1894 H6            1 RES     
     862 H6          41.0091   -26.1447    27.0922 H6            1 RES     
     863 H6          42.5258   -25.3564    26.4950 H6            1 RES     
     864 H6          41.3784   -23.1492    26.4047 H6            1 RES     
     865 H6          39.8110   -23.8745    26.8983 H6            1 RES     
     866 H6          40.9136   -22.6561    28.7231 H6            1 RES     
     867 H6          42.3281   -23.7742    28.6649 H6            1 RES     
     868 H6          40.7715   -25.6876    29.2792 H6            1 RES     
     869 H6          40.6810   -24.3533    30.4788 H6            1 RES     
     870 H6          39.3748   -24.5383    29.2514 H6            1 RES     
     871 C0          36.7669   -36.8215    11.6540 C0            1 RES     
     872 C1          36.7464   -35.3764    12.1988 C1            1 RES     
     873 C1          36.3742   -34.4731    11.2550 C1            1 RES     
     874 S2          36.4305   -32.8868    11.7871 S2            1 RES     
     875 C1          37.0071   -33.3508    13.3178 C1            1 RES     
     876 C1          37.1492   -34.7411    13.3853 C1            1 RES     
     877 C1          36.1499   -35.1526    10.0382 C1            1 RES     
     878 C1          36.4450   -36.4707    10.2005 C1            1 RES     
     879 C1          36.3845   -37.1768     9.0051 C1            1 RES     
     880 C1          35.9955   -36.3328     7.9513 C1            1 RES     
     881 S2          35.7467   -34.7380     8.4786 S2            1 RES     
     882 H3          37.5734   -35.2216    14.2464 H3            1 RES     
     883 H3          36.6119   -38.2311     8.9023 H3            1 RES     
     884 N4          34.6556   -37.0133     4.5173 N4            1 RES     
     885 C1          34.6988   -36.7143     5.8488 C1            1 RES     
     886 C1          35.9225   -36.6945     6.5400 C1            1 RES     
     887 C1          37.0887   -36.9659     5.8222 C1            1 RES     
     888 N4          38.3369   -36.9233     6.3546 N4            1 RES     
     889 S2          39.2881   -37.2603     5.0456 S2            1 RES     
     890 N4          38.2042   -37.4666     3.8123 N4            1 RES     
     891 C1          37.0191   -37.2542     4.4361 C1            1 RES     
     892 C1          35.7811   -37.2878     3.7998 C1            1 RES     
     893 H5          33.7736   -36.4990     6.3764 H5            1 RES     
     894 C0          35.7024   -37.8565    12.1624 C0            1 RES     
     895 C0          34.1563   -37.9527    11.8758 C0            1 RES     
     896 C0          33.6455   -39.1294    12.7796 C0            1 RES     
     897 C0          32.1641   -39.5061    12.6540 C0            1 RES     
     898 C0          31.7629   -40.6406    13.6260 C0            1 RES     
     899 C0          32.4745   -41.9945    13.4102 C0            1 RES     
     900 C0          32.3521   -42.5714    11.9888 C0            1 RES     
     901 C0          30.8928   -42.7675    11.5411 C0            1 RES     
     902 C0          30.7728   -43.2904    10.1025 C0            1 RES     
     903 C0          31.3040   -44.7238     9.9328 C0            1 RES     
     904 C0          31.0745   -45.2783     8.5178 C0            1 RES     
     905 C0          31.8677   -44.5338     7.4431 C0            1 RES     
     906 C0          33.2639   -36.6762    12.0142 C0            1 RES     
     907 C0          33.0920   -36.0144    13.4160 C0            1 RES     
     908 C0          33.5909   -34.5679    13.3461 C0            1 RES     
     909 C0          33.8262   -33.8267    14.6591 C0            1 RES     
     910 C0          32.5934   -33.2566    15.3450 C0            1 RES     
     911 C0          33.0626   -32.5152    16.6145 C0            1 RES     
     912 C0          31.9631   -31.7190    17.3212 C0            1 RES     
     913 C0          31.4973   -30.5161    16.4982 C0            1 RES     
     914 H6          35.7675   -37.8546    13.2204 H6            1 RES     
     915 H6          36.0865   -38.8394    11.8073 H6            1 RES     
     916 H6          34.0492   -38.2548    10.8100 H6            1 RES     
     917 H6          33.8301   -38.8783    13.8470 H6            1 RES     
     918 H6          34.2505   -40.0293    12.5374 H6            1 RES     
     919 H6          31.9295   -39.7865    11.6070 H6            1 RES     
     920 H6          31.5405   -38.6314    12.9285 H6            1 RES     
     921 H6          30.6672   -40.7946    13.5428 H6            1 RES     
     922 H6          31.9561   -40.3134    14.6717 H6            1 RES     
     923 H6          32.0517   -42.7255    14.1349 H6            1 RES     
     924 H6          33.5544   -41.8923    13.6505 H6            1 RES     
     925 H6          32.8699   -41.8973    11.2743 H6            1 RES     
     926 H6          32.8842   -43.5453    11.9814 H6            1 RES     
     927 H6          30.3784   -41.7851    11.5567 H6            1 RES     
     928 H6          30.3630   -43.4506    12.2407 H6            1 RES     
     929 H6          29.6939   -43.2874     9.8337 H6            1 RES     
     930 H6          31.3020   -42.5874     9.4256 H6            1 RES     
     931 H6          32.3877   -44.7764    10.1660 H6            1 RES     
     932 H6          30.7594   -45.3805    10.6458 H6            1 RES     
     933 H6          29.9908   -45.2460     8.2714 H6            1 RES     
     934 H6          31.3995   -46.3410     8.5065 H6            1 RES     
     935 H6          31.5507   -43.4742     7.3676 H6            1 RES     
     936 H6          32.9542   -44.5784     7.6694 H6            1 RES     
     937 H6          31.6902   -45.0130     6.4576 H6            1 RES     
     938 H6          32.2448   -36.9389    11.6580 H6            1 RES     
     939 H6          33.5983   -35.9350    11.2571 H6            1 RES     
     940 H6          32.0203   -35.9981    13.7164 H6            1 RES     
     941 H6          33.6562   -36.5874    14.1797 H6            1 RES     
     942 H6          33.0040   -33.9537    12.6310 H6            1 RES     
     943 H6          34.5778   -34.6684    12.9472 H6            1 RES     
     944 H6          34.3905   -34.4715    15.3373 H6            1 RES     
     945 H6          34.4784   -32.9573    14.4153 H6            1 RES     
     946 H6          32.1156   -32.5537    14.6300 H6            1 RES     
     947 H6          31.8701   -34.0561    15.6110 H6            1 RES     
     948 H6          33.4703   -33.2715    17.3230 H6            1 RES     
     949 H6          33.8865   -31.8068    16.3696 H6            1 RES     
     950 H6          32.3882   -31.3259    18.2709 H6            1 RES     
     951 H6          31.1058   -32.3804    17.5670 H6            1 RES     
     952 H6          31.0232   -30.8324    15.5483 H6            1 RES     
     953 H6          30.7537   -29.9347    17.0802 H6            1 RES     
     954 H6          32.3605   -29.8517    16.2696 H6            1 RES     
     955 C0          38.2463   -37.3265    11.8821 C0            1 RES     
     956 C0          38.6913   -38.4725    12.8994 C0            1 RES     
     957 C0          40.2147   -38.2454    13.1825 C0            1 RES     
     958 C0          40.9310   -39.3880    13.9304 C0            1 RES     
     959 C0          42.4193   -39.1122    14.2080 C0            1 RES     
     960 C0          43.3002   -38.8853    12.9664 C0            1 RES     
     961 C0          43.2320   -39.9958    11.9049 C0            1 RES     
     962 C0          43.6082   -41.3857    12.4478 C0            1 RES     
     963 C0          43.5302   -42.4850    11.3760 C0            1 RES     
     964 C0          44.5844   -42.3162    10.2673 C0            1 RES     
     965 C0          44.5914   -43.4797     9.2636 C0            1 RES     
     966 C0          43.3059   -43.5753     8.4416 C0            1 RES     
     967 C0          37.9161   -38.8740    14.2241 C0            1 RES     
     968 C0          37.8306   -37.9201    15.4491 C0            1 RES     
     969 C0          36.4336   -37.2936    15.6077 C0            1 RES     
     970 C0          36.2598   -36.2943    16.7394 C0            1 RES     
     971 C0          36.2223   -36.8534    18.1547 C0            1 RES     
     972 C0          35.8659   -35.6827    19.0936 C0            1 RES     
     973 C0          35.6310   -36.0863    20.5503 C0            1 RES     
     974 C0          34.3719   -36.9375    20.7214 C0            1 RES     
     975 H6          38.8914   -36.4326    12.0486 H6            1 RES     
     976 H6          38.6320   -37.6728    10.8966 H6            1 RES     
     977 H6          38.6027   -39.4064    12.2976 H6            1 RES     
     978 H6          40.3396   -37.3080    13.7663 H6            1 RES     
     979 H6          40.7247   -38.1094    12.2046 H6            1 RES     
     980 H6          40.8158   -40.3314    13.3567 H6            1 RES     
     981 H6          40.4848   -39.5304    14.9337 H6            1 RES     
     982 H6          42.8214   -39.9744    14.7818 H6            1 RES     
     983 H6          42.5095   -38.2194    14.8651 H6            1 RES     
     984 H6          44.3515   -38.7737    13.3110 H6            1 RES     
     985 H6          43.0117   -37.9279    12.4825 H6            1 RES     
     986 H6          42.2086   -40.0361    11.4744 H6            1 RES     
     987 H6          43.9294   -39.7035    11.0936 H6            1 RES     
     988 H6          42.8895   -41.6659    13.2460 H6            1 RES     
     989 H6          44.6277   -41.3637    12.8900 H6            1 RES     
     990 H6          43.7105   -43.4594    11.8800 H6            1 RES     
     991 H6          42.5044   -42.4982    10.9502 H6            1 RES     
     992 H6          44.4287   -41.3693     9.7106 H6            1 RES     
     993 H6          45.5869   -42.2796    10.7470 H6            1 RES     
     994 H6          44.7646   -44.4384     9.7992 H6            1 RES     
     995 H6          45.4357   -43.3200     8.5587 H6            1 RES     
     996 H6          42.4296   -43.7883     9.0864 H6            1 RES     
     997 H6          43.1343   -42.6288     7.8860 H6            1 RES     
     998 H6          43.4005   -44.4041     7.7089 H6            1 RES     
     999 H6          38.4413   -39.7745    14.5921 H6            1 RES     
    1000 H6          36.9413   -39.3593    14.0291 H6            1 RES     
    1001 H6          37.9613   -38.5355    16.3665 H6            1 RES     
    1002 H6          38.6511   -37.1745    15.4295 H6            1 RES     
    1003 H6          35.6605   -38.0915    15.6854 H6            1 RES     
    1004 H6          36.2026   -36.6896    14.7373 H6            1 RES     
    1005 H6          37.0138   -35.4826    16.6463 H6            1 RES     
    1006 H6          35.2529   -35.8714    16.5888 H6            1 RES     
    1007 H6          35.4344   -37.6353    18.1893 H6            1 RES     
    1008 H6          37.1974   -37.3035    18.4348 H6            1 RES     
    1009 H6          36.6976   -34.9452    19.0554 H6            1 RES     
    1010 H6          34.9440   -35.1682    18.7368 H6            1 RES     
    1011 H6          35.4822   -35.1506    21.1326 H6            1 RES     
    1012 H6          36.5201   -36.6145    20.9483 H6            1 RES     
    1013 H6          34.4655   -37.9095    20.1978 H6            1 RES     
    1014 H6          34.2096   -37.1386    21.8002 H6            1 RES     
    1015 H6          33.4842   -36.3954    20.3277 H6            1 RES     
    1016 C0          35.3395   -39.9664    -0.9127 C0            1 RES     
    1017 C1          35.4276   -38.8989     0.2001 C1            1 RES     
    1018 C1          35.6657   -37.6559    -0.2933 C1            1 RES     
    1019 S2          35.8586   -36.4902     0.8926 S2            1 RES     
    1020 C1          35.6701   -37.6315     2.1386 C1            1 RES     
    1021 C1          35.4624   -38.9079     1.6045 C1            1 RES     
    1022 C1          35.7925   -37.7399    -1.6968 C1            1 RES     
    1023 C1          35.7002   -39.0429    -2.0773 C1            1 RES     
    1024 C1          35.9588   -39.2174    -3.4315 C1            1 RES     
    1025 C1          36.2119   -37.9814    -4.0500 C1            1 RES     
    1026 S2          36.1362   -36.6949    -2.9443 S2            1 RES     
    1027 H3          35.3967   -39.7761     2.2323 H3            1 RES     
    1028 H3          35.9685   -40.1758    -3.9365 H3            1 RES     
    1029 N4          36.2125   -36.8910    -7.6363 N4            1 RES     
    1030 C1          35.7948   -37.1089    -6.3548 C1            1 RES     
    1031 C1          36.6204   -37.7791    -5.4356 C1            1 RES     
    1032 C1          37.8830   -38.1926    -5.8643 C1            1 RES     
    1033 N4          38.7979   -38.7972    -5.0638 N4            1 RES     
    1034 S2          40.0860   -38.9841    -6.0825 S2            1 RES     
    1035 N4          39.5566   -38.3389    -7.5114 N4            1 RES     
    1036 C1          38.3009   -37.9370    -7.1945 C1            1 RES     
    1037 C1          37.4379   -37.2924    -8.0768 C1            1 RES     
    1038 H5          34.8096   -36.7664    -6.0504 H5            1 RES     
    1039 C0          33.9604   -40.6463    -1.2269 C0            1 RES     
    1040 C0          32.6713   -40.0639    -1.9203 C0            1 RES     
    1041 C0          31.5999   -41.2057    -1.8163 C0            1 RES     
    1042 C0          30.2433   -40.9449    -2.4825 C0            1 RES     
    1043 C0          29.2524   -42.1141    -2.2725 C0            1 RES     
    1044 C0          29.6724   -43.4697    -2.8823 C0            1 RES     
    1045 C0          29.9930   -43.4318    -4.3869 C0            1 RES     
    1046 C0          28.8224   -42.9118    -5.2400 C0            1 RES     
    1047 C0          29.1639   -42.8221    -6.7343 C0            1 RES     
    1048 C0          29.3872   -44.1963    -7.3880 C0            1 RES     
    1049 C0          29.6147   -44.1019    -8.9051 C0            1 RES     
    1050 C0          30.9094   -43.3778    -9.2763 C0            1 RES     
    1051 C0          32.1031   -38.6820    -1.4590 C0            1 RES     
    1052 C0          31.5462   -38.5321    -0.0098 C0            1 RES     
    1053 C0          32.3395   -37.4411     0.7159 C0            1 RES     
    1054 C0          32.1986   -37.3410     2.2321 C0            1 RES     
    1055 C0          30.9552   -36.6340     2.7512 C0            1 RES     
    1056 C0          31.0402   -36.6044     4.2918 C0            1 RES     
    1057 C0          29.9578   -35.7581     4.9659 C0            1 RES     
    1058 C0          30.1315   -34.2638     4.6865 C0            1 RES     
    1059 H6          33.6038   -41.0343    -0.3071 H6            1 RES     
    1060 H6          34.2248   -41.5133    -1.8734 H6            1 RES     
    1061 H6          32.9270   -39.9171    -2.9935 H6            1 RES     
    1062 H6          31.4015   -41.4255    -0.7445 H6            1 RES     
    1063 H6          32.0357   -42.1210    -2.2712 H6            1 RES     
    1064 H6          30.3826   -40.7392    -3.5633 H6            1 RES     
    1065 H6          29.7727   -40.0558    -2.0163 H6            1 RES     
    1066 H6          28.2727   -41.8169    -2.7005 H6            1 RES     
    1067 H6          29.0871   -42.2637    -1.1825 H6            1 RES     
    1068 H6          28.8486   -44.1968    -2.7062 H6            1 RES     
    1069 H6          30.5648   -43.8602    -2.3479 H6            1 RES     
    1070 H6          30.8850   -42.7921    -4.5551 H6            1 RES     
    1071 H6          30.2551   -44.4655    -4.6942 H6            1 RES     
    1072 H6          28.5748   -41.8800    -4.9173 H6            1 RES     
    1073 H6          27.9236   -43.5496    -5.0918 H6            1 RES     
    1074 H6          28.3070   -42.3313    -7.2451 H6            1 RES     
    1075 H6          30.0578   -42.1746    -6.8544 H6            1 RES     
    1076 H6          30.2515   -44.7194    -6.9288 H6            1 RES     
    1077 H6          28.4758   -44.8106    -7.2203 H6            1 RES     
    1078 H6          28.7510   -43.5918    -9.3849 H6            1 RES     
    1079 H6          29.6738   -45.1351    -9.3104 H6            1 RES     
    1080 H6          30.8908   -42.3202    -8.9444 H6            1 RES     
    1081 H6          31.7807   -43.8926    -8.8186 H6            1 RES     
    1082 H6          31.0315   -43.3860   -10.3797 H6            1 RES     
    1083 H6          31.2749   -38.4125    -2.1488 H6            1 RES     
    1084 H6          32.8630   -37.9025    -1.6812 H6            1 RES     
    1085 H6          30.4752   -38.2292    -0.0275 H6            1 RES     
    1086 H6          31.6233   -39.4978     0.5299 H6            1 RES     
    1087 H6          32.2323   -36.4483     0.2303 H6            1 RES     
    1088 H6          33.3549   -37.7516     0.5893 H6            1 RES     
    1089 H6          32.2934   -38.3392     2.6665 H6            1 RES     
    1090 H6          33.0691   -36.7446     2.5887 H6            1 RES     
    1091 H6          30.9650   -35.6046     2.3344 H6            1 RES     
    1092 H6          30.0280   -37.1517     2.4264 H6            1 RES     
    1093 H6          30.9586   -37.6520     4.6604 H6            1 RES     
    1094 H6          32.0288   -36.2096     4.6197 H6            1 RES     
    1095 H6          30.0518   -35.9027     6.0647 H6            1 RES     
    1096 H6          28.9495   -36.1004     4.6513 H6            1 RES     
    1097 H6          30.0108   -34.0349     3.6093 H6            1 RES     
    1098 H6          29.3681   -33.6904     5.2505 H6            1 RES     
    1099 H6          31.1389   -33.9271     5.0186 H6            1 RES     
    1100 C0          36.4588   -41.0235    -0.5586 C0            1 RES     
    1101 C0          36.2030   -42.5282    -0.0933 C0            1 RES     
    1102 C0          37.5022   -42.9881     0.6504 C0            1 RES     
    1103 C0          37.5951   -44.4961     0.9589 C0            1 RES     
    1104 C0          38.8759   -44.8991     1.7108 C0            1 RES     
    1105 C0          40.1997   -44.5965     0.9862 C0            1 RES     
    1106 C0          40.3093   -45.1638    -0.4388 C0            1 RES     
    1107 C0          40.1242   -46.6900    -0.5062 C0            1 RES     
    1108 C0          40.2315   -47.2404    -1.9375 C0            1 RES     
    1109 C0          41.6451   -47.0976    -2.5296 C0            1 RES     
    1110 C0          41.7874   -47.7581    -3.9097 C0            1 RES     
    1111 C0          40.9412   -47.0855    -4.9907 C0            1 RES     
    1112 C0          34.9022   -43.0491     0.6508 C0            1 RES     
    1113 C0          34.5565   -42.6173     2.1041 C0            1 RES     
    1114 C0          33.3860   -41.6191     2.1562 C0            1 RES     
    1115 C0          33.0082   -41.0835     3.5273 C0            1 RES     
    1116 C0          32.2955   -42.0421     4.4709 C0            1 RES     
    1117 C0          31.8683   -41.2248     5.7072 C0            1 RES     
    1118 C0          30.9976   -41.9911     6.7046 C0            1 RES     
    1119 C0          29.6179   -42.3242     6.1351 C0            1 RES     
    1120 H6          37.1675   -40.5452     0.1569 H6            1 RES     
    1121 H6          37.1130   -41.1232    -1.4541 H6            1 RES     
    1122 H6          36.1531   -43.0944    -1.0519 H6            1 RES     
    1123 H6          37.5923   -42.4258     1.6049 H6            1 RES     
    1124 H6          38.3713   -42.7193     0.0123 H6            1 RES     
    1125 H6          37.5082   -45.0705     0.0128 H6            1 RES     
    1126 H6          36.7715   -44.8025     1.6326 H6            1 RES     
    1127 H6          38.8186   -45.9896     1.9152 H6            1 RES     
    1128 H6          38.8963   -44.3881     2.6984 H6            1 RES     
    1129 H6          41.0278   -45.0044     1.6062 H6            1 RES     
    1130 H6          40.3441   -43.4964     0.9312 H6            1 RES     
    1131 H6          39.5557   -44.6748    -1.0924 H6            1 RES     
    1132 H6          41.3150   -44.8863    -0.8152 H6            1 RES     
    1133 H6          39.1073   -46.9447    -0.1412 H6            1 RES     
    1134 H6          40.8657   -47.1974     0.1481 H6            1 RES     
    1135 H6          39.9788   -48.3225    -1.9015 H6            1 RES     
    1136 H6          39.4799   -46.7288    -2.5756 H6            1 RES     
    1137 H6          41.9343   -46.0300    -2.6166 H6            1 RES     
    1138 H6          42.3599   -47.5990    -1.8412 H6            1 RES     
    1139 H6          41.5194   -48.8349    -3.8414 H6            1 RES     
    1140 H6          42.8530   -47.6858    -4.2167 H6            1 RES     
    1141 H6          39.8586   -47.1714    -4.7675 H6            1 RES     
    1142 H6          41.2157   -46.0130    -5.0812 H6            1 RES     
    1143 H6          41.1294   -47.5828    -5.9654 H6            1 RES     
    1144 H6          35.0272   -44.1466     0.6949 H6            1 RES     
    1145 H6          34.0010   -43.0437     0.0093 H6            1 RES     
    1146 H6          34.1770   -43.5139     2.6419 H6            1 RES     
    1147 H6          35.4619   -42.2670     2.6399 H6            1 RES     
    1148 H6          32.4886   -42.0520     1.6586 H6            1 RES     
    1149 H6          33.6551   -40.7118     1.6270 H6            1 RES     
    1150 H6          33.8976   -40.6264     4.0130 H6            1 RES     
    1151 H6          32.2621   -40.2972     3.3261 H6            1 RES     
    1152 H6          31.4054   -42.4408     3.9399 H6            1 RES     
    1153 H6          32.9564   -42.8850     4.7618 H6            1 RES     
    1154 H6          32.7892   -40.8792     6.2265 H6            1 RES     
    1155 H6          31.2993   -40.3192     5.3940 H6            1 RES     
    1156 H6          30.8436   -41.3296     7.5853 H6            1 RES     
    1157 H6          31.5181   -42.9107     7.0381 H6            1 RES     
    1158 H6          29.6915   -43.0172     5.2735 H6            1 RES     
    1159 H6          29.0052   -42.8115     6.9210 H6            1 RES     
    1160 H6          29.1000   -41.3946     5.8118 H6            1 RES     
    1161 C0          38.2993   -37.8151   -13.4212 C0            1 RES     
    1162 C1          38.1778   -37.3099   -11.9666 C1            1 RES     
    1163 C1          38.8594   -36.1528   -11.7623 C1            1 RES     
    1164 S2          38.8246   -35.6266   -10.1735 S2            1 RES     
    1165 C1          37.9144   -36.9742    -9.6773 C1            1 RES     
    1166 C1          37.6558   -37.8160   -10.7645 C1            1 RES     
    1167 C1          39.5046   -35.7867   -12.9633 C1            1 RES     
    1168 C1          39.2829   -36.7468   -13.9013 C1            1 RES     
    1169 C1          40.0064   -36.5240   -15.0667 C1            1 RES     
    1170 C1          40.7490   -35.3352   -14.9683 C1            1 RES     
    1171 S2          40.5326   -34.5785   -13.4636 S2            1 RES     
    1172 H3          37.1585   -38.7591   -10.6394 H3            1 RES     
    1173 H3          40.0009   -37.1810   -15.9282 H3            1 RES     
    1174 N4          42.3982   -33.1535   -17.5316 N4            1 RES     
    1175 C1          41.4742   -33.6318   -16.6474 C1            1 RES     
    1176 C1          41.7021   -34.8311   -15.9506 C1            1 RES     
    1177 C1          42.9059   -35.5026   -16.1718 C1            1 RES     
    1178 N4          43.2745   -36.6369   -15.5230 N4            1 RES     
    1179 S2          44.7827   -36.9180   -16.1379 S2            1 RES     
    1180 N4          45.0137   -35.6726   -17.2028 N4            1 RES     
    1181 C1          43.8575   -34.9750   -17.0803 C1            1 RES     
    1182 C1          43.5760   -33.7969   -17.7671 C1            1 RES     
    1183 H5          40.5511   -33.0803   -16.4915 H5            1 RES     
    1184 C0          37.0408   -37.7885   -14.3583 C0            1 RES     
    1185 C0          36.2911   -36.5734   -15.0241 C0            1 RES     
    1186 C0          35.0409   -37.2032   -15.7331 C0            1 RES     
    1187 C0          34.1489   -36.2506   -16.5388 C0            1 RES     
    1188 C0          32.9229   -36.9702   -17.1488 C0            1 RES     
    1189 C0          33.2368   -38.0842   -18.1716 C0            1 RES     
    1190 C0          34.1218   -37.6487   -19.3528 C0            1 RES     
    1191 C0          33.5268   -36.4757   -20.1518 C0            1 RES     
    1192 C0          34.4378   -36.0067   -21.2953 C0            1 RES     
    1193 C0          34.5892   -37.0495   -22.4156 C0            1 RES     
    1194 C0          35.4084   -36.5268   -23.6064 C0            1 RES     
    1195 C0          36.8703   -36.2473   -23.2554 C0            1 RES     
    1196 C0          35.9090   -35.3311   -14.1548 C0            1 RES     
    1197 C0          34.8765   -35.4986   -12.9978 C0            1 RES     
    1198 C0          35.5416   -35.0977   -11.6776 C0            1 RES     
    1199 C0          34.8431   -35.4838   -10.3769 C0            1 RES     
    1200 C0          33.6860   -34.5971    -9.9408 C0            1 RES     
    1201 C0          33.1640   -35.1352    -8.5920 C0            1 RES     
    1202 C0          32.1207   -34.2408    -7.9185 C0            1 RES     
    1203 C0          32.7164   -32.9169    -7.4351 C0            1 RES     
    1204 H6          36.2756   -38.3111   -13.8434 H6            1 RES     
    1205 H6          37.3385   -38.4109   -15.2323 H6            1 RES     
    1206 H6          36.9730   -36.1692   -15.8053 H6            1 RES     
    1207 H6          34.3945   -37.6910   -14.9710 H6            1 RES     
    1208 H6          35.4056   -37.9962   -16.4205 H6            1 RES     
    1209 H6          34.7430   -35.7503   -17.3304 H6            1 RES     
    1210 H6          33.7429   -35.4713   -15.8627 H6            1 RES     
    1211 H6          32.2822   -36.2066   -17.6362 H6            1 RES     
    1212 H6          32.3145   -37.4158   -16.3308 H6            1 RES     
    1213 H6          32.2712   -38.4715   -18.5666 H6            1 RES     
    1214 H6          33.7373   -38.9332   -17.6587 H6            1 RES     
    1215 H6          35.1258   -37.3648   -18.9728 H6            1 RES     
    1216 H6          34.2473   -38.5315   -20.0136 H6            1 RES     
    1217 H6          33.4077   -35.6053   -19.4749 H6            1 RES     
    1218 H6          32.5249   -36.7487   -20.5498 H6            1 RES     
    1219 H6          33.9820   -35.0921   -21.7334 H6            1 RES     
    1220 H6          35.4264   -35.7333   -20.8702 H6            1 RES     
    1221 H6          35.0647   -37.9768   -22.0341 H6            1 RES     
    1222 H6          33.5736   -37.3043   -22.7897 H6            1 RES     
    1223 H6          34.9387   -35.6038   -24.0111 H6            1 RES     
    1224 H6          35.3913   -37.3009   -24.4037 H6            1 RES     
    1225 H6          36.9578   -35.4416   -22.4990 H6            1 RES     
    1226 H6          37.3545   -37.1695   -22.8696 H6            1 RES     
    1227 H6          37.4104   -35.9176   -24.1675 H6            1 RES     
    1228 H6          35.5001   -34.5563   -14.8381 H6            1 RES     
    1229 H6          36.8473   -34.8592   -13.7921 H6            1 RES     
    1230 H6          33.9944   -34.8384   -13.1569 H6            1 RES     
    1231 H6          34.5196   -36.5476   -12.9545 H6            1 RES     
    1232 H6          35.8564   -34.0329   -11.6705 H6            1 RES     
    1233 H6          36.4289   -35.6941   -11.6596 H6            1 RES     
    1234 H6          34.5361   -36.5311   -10.4334 H6            1 RES     
    1235 H6          35.6124   -35.4108    -9.5748 H6            1 RES     
    1236 H6          34.0863   -33.5673    -9.8278 H6            1 RES     
    1237 H6          32.8711   -34.5923   -10.6951 H6            1 RES     
    1238 H6          32.7144   -36.1379    -8.7732 H6            1 RES     
    1239 H6          34.0053   -35.2698    -7.8746 H6            1 RES     
    1240 H6          31.7414   -34.7800    -7.0227 H6            1 RES     
    1241 H6          31.2682   -34.0582    -8.6061 H6            1 RES     
    1242 H6          33.0821   -32.3025    -8.2813 H6            1 RES     
    1243 H6          31.9407   -32.3369    -6.8952 H6            1 RES     
    1244 H6          33.5601   -33.1100    -6.7353 H6            1 RES     
    1245 C0          38.9254   -39.2608   -13.3039 C0            1 RES     
    1246 C0          38.1811   -40.6278   -13.6552 C0            1 RES     
    1247 C0          38.9472   -41.7582   -12.8885 C0            1 RES     
    1248 C0          38.5749   -43.2016   -13.2834 C0            1 RES     
    1249 C0          39.3341   -44.2789   -12.4889 C0            1 RES     
    1250 C0          40.8672   -44.2519   -12.6223 C0            1 RES     
    1251 C0          41.3985   -44.2895   -14.0648 C0            1 RES     
    1252 C0          40.9215   -45.5167   -14.8613 C0            1 RES     
    1253 C0          41.4571   -45.5367   -16.3021 C0            1 RES     
    1254 C0          42.9829   -45.7264   -16.3713 C0            1 RES     
    1255 C0          43.5051   -45.8720   -17.8091 C0            1 RES     
    1256 C0          43.3229   -44.6072   -18.6482 C0            1 RES     
    1257 C0          36.6125   -40.8585   -13.5979 C0            1 RES     
    1258 C0          35.8293   -40.8613   -12.2545 C0            1 RES     
    1259 C0          34.9851   -39.5882   -12.0656 C0            1 RES     
    1260 C0          34.2285   -39.4612   -10.7537 C0            1 RES     
    1261 C0          33.0096   -40.3544   -10.5702 C0            1 RES     
    1262 C0          32.3242   -39.9194    -9.2587 C0            1 RES     
    1263 C0          30.9858   -40.6073    -8.9837 C0            1 RES     
    1264 C0          29.9037   -40.1926    -9.9818 C0            1 RES     
    1265 H6          39.3832   -39.3546   -12.2917 H6            1 RES     
    1266 H6          39.8388   -39.2769   -13.9407 H6            1 RES     
    1267 H6          38.3873   -40.7672   -14.7415 H6            1 RES     
    1268 H6          38.7777   -41.6355   -11.7969 H6            1 RES     
    1269 H6          40.0330   -41.6237   -13.0828 H6            1 RES     
    1270 H6          38.7414   -43.3388   -14.3725 H6            1 RES     
    1271 H6          37.5075   -43.3975   -13.0639 H6            1 RES     
    1272 H6          38.9611   -45.2706   -12.8230 H6            1 RES     
    1273 H6          39.0780   -44.1864   -11.4105 H6            1 RES     
    1274 H6          41.2728   -45.1221   -12.0611 H6            1 RES     
    1275 H6          41.2615   -43.3355   -12.1335 H6            1 RES     
    1276 H6          41.0906   -43.3650   -14.5984 H6            1 RES     
    1277 H6          42.5055   -44.2881   -13.9962 H6            1 RES     
    1278 H6          39.8141   -45.4904   -14.9322 H6            1 RES     
    1279 H6          41.2144   -46.4530   -14.3386 H6            1 RES     
    1280 H6          40.9776   -46.3913   -16.8273 H6            1 RES     
    1281 H6          41.1498   -44.5987   -16.8116 H6            1 RES     
    1282 H6          43.5118   -44.8801   -15.8866 H6            1 RES     
    1283 H6          43.2399   -46.6595   -15.8238 H6            1 RES     
    1284 H6          43.0006   -46.7276   -18.3084 H6            1 RES     
    1285 H6          44.5929   -46.0938   -17.7585 H6            1 RES     
    1286 H6          42.2499   -44.3620   -18.7808 H6            1 RES     
    1287 H6          43.8411   -43.7499   -18.1681 H6            1 RES     
    1288 H6          43.7632   -44.7687   -19.6546 H6            1 RES     
    1289 H6          36.4636   -41.8676   -14.0240 H6            1 RES     
    1290 H6          36.0608   -40.3019   -14.3786 H6            1 RES     
    1291 H6          35.0808   -41.6828   -12.3014 H6            1 RES     
    1292 H6          36.5049   -41.0757   -11.4018 H6            1 RES     
    1293 H6          34.2832   -39.4613   -12.9210 H6            1 RES     
    1294 H6          35.6340   -38.7201   -12.0355 H6            1 RES     
    1295 H6          34.9332   -39.5601    -9.8996 H6            1 RES     
    1296 H6          33.8155   -38.4390   -10.7653 H6            1 RES     
    1297 H6          32.3350   -40.1892   -11.4367 H6            1 RES     
    1298 H6          33.2987   -41.4252   -10.5301 H6            1 RES     
    1299 H6          33.0191   -40.1378    -8.4181 H6            1 RES     
    1300 H6          32.1398   -38.8203    -9.2652 H6            1 RES     
    1301 H6          30.6493   -40.2838    -7.9741 H6            1 RES     
    1302 H6          31.1159   -41.7076    -8.9789 H6            1 RES     
    1303 H6          30.1540   -40.5203   -11.0103 H6            1 RES     
    1304 H6          28.9404   -40.6608    -9.6931 H6            1 RES     
    1305 H6          29.7742   -39.0880    -9.9726 H6            1 RES     
    1306 C0          46.3263   -32.7162   -22.3329 C0            1 RES     
    1307 C1          45.7590   -32.7382   -20.8964 C1            1 RES     
    1308 C1          46.5437   -32.0590   -20.0200 C1            1 RES     
    1309 S2          46.0058   -32.1410   -18.4368 S2            1 RES     
    1310 C1          44.7000   -33.1433   -18.8623 C1            1 RES     
    1311 C1          44.7092   -33.3998   -20.2377 C1            1 RES     
    1312 C1          47.6720   -31.5638   -20.7087 C1            1 RES     
    1313 C1          47.6294   -31.9877   -22.0008 C1            1 RES     
    1314 C1          48.7820   -31.6574   -22.7035 C1            1 RES     
    1315 C1          49.6696   -30.9365   -21.8870 C1            1 RES     
    1316 S2          49.0537   -30.7237   -20.3189 S2            1 RES     
    1317 H3          44.0072   -34.0755   -20.6882 H3            1 RES     
    1318 H3          48.9695   -31.9250   -23.7364 H3            1 RES     
    1319 N4          52.6311   -28.7697   -22.6520 N4            1 RES     
    1320 C1          51.3533   -29.1501   -22.3572 C1            1 RES     
    1321 C1          51.0177   -30.5105   -22.2461 C1            1 RES     
    1322 C1          52.0303   -31.4551   -22.4227 C1            1 RES     
    1323 N4          51.8535   -32.7943   -22.2861 N4            1 RES     
    1324 S2          53.3789   -33.3772   -22.5417 S2            1 RES     
    1325 N4          54.2789   -32.0178   -22.8254 N4            1 RES     
    1326 C1          53.3532   -31.0338   -22.7086 C1            1 RES     
    1327 C1          53.6324   -29.6756   -22.8349 C1            1 RES     
    1328 H5          50.5903   -28.3894   -22.2170 H5            1 RES     
    1329 C0          45.5764   -31.9082   -23.4498 C0            1 RES     
    1330 C0          45.4376   -30.3536   -23.6642 C0            1 RES     
    1331 C0          44.4602   -30.1945   -24.8814 C0            1 RES     
    1332 C0          44.1911   -28.7662   -25.3713 C0            1 RES     
    1333 C0          43.1765   -28.7278   -26.5383 C0            1 RES     
    1334 C0          43.6112   -29.4515   -27.8318 C0            1 RES     
    1335 C0          44.9612   -28.9911   -28.4094 C0            1 RES     
    1336 C0          45.0034   -27.4835   -28.7158 C0            1 RES     
    1337 C0          46.3693   -27.0167   -29.2392 C0            1 RES     
    1338 C0          46.7130   -27.5857   -30.6262 C0            1 RES     
    1339 C0          48.0274   -27.0226   -31.1897 C0            1 RES     
    1340 C0          49.2567   -27.4380   -30.3807 C0            1 RES     
    1341 C0          45.0306   -29.4410   -22.4614 C0            1 RES     
    1342 C0          43.6178   -29.6075   -21.8220 C0            1 RES     
    1343 C0          43.7824   -29.9613   -20.3409 C0            1 RES     
    1344 C0          42.5629   -30.4887   -19.5902 C0            1 RES     
    1345 C0          41.5552   -29.4495   -19.1208 C0            1 RES     
    1346 C0          40.4408   -30.1895   -18.3516 C0            1 RES     
    1347 C0          39.4433   -29.2675   -17.6466 C0            1 RES     
    1348 C0          40.0787   -28.5092   -16.4793 C0            1 RES     
    1349 H6          44.5755   -32.2572   -23.4481 H6            1 RES     
    1350 H6          46.0472   -32.2526   -24.3982 H6            1 RES     
    1351 H6          46.4424   -29.9841   -23.9684 H6            1 RES     
    1352 H6          43.4760   -30.6425   -24.6222 H6            1 RES     
    1353 H6          44.8797   -30.7755   -25.7305 H6            1 RES     
    1354 H6          45.1428   -28.2779   -25.6638 H6            1 RES     
    1355 H6          43.7360   -28.1781   -24.5490 H6            1 RES     
    1356 H6          42.9649   -27.6648   -26.7764 H6            1 RES     
    1357 H6          42.2137   -29.1726   -26.2023 H6            1 RES     
    1358 H6          42.8184   -29.2956   -28.5970 H6            1 RES     
    1359 H6          43.6686   -30.5456   -27.6474 H6            1 RES     
    1360 H6          45.7713   -29.2450   -27.6936 H6            1 RES     
    1361 H6          45.1370   -29.5711   -29.3391 H6            1 RES     
    1362 H6          44.8243   -26.9220   -27.7763 H6            1 RES     
    1363 H6          44.2047   -27.2147   -29.4414 H6            1 RES     
    1364 H6          46.3369   -25.9082   -29.3185 H6            1 RES     
    1365 H6          47.1456   -27.2897   -28.4939 H6            1 RES     
    1366 H6          46.7823   -28.6928   -30.5958 H6            1 RES     
    1367 H6          45.8967   -27.3044   -31.3268 H6            1 RES     
    1368 H6          47.9714   -25.9132   -31.2403 H6            1 RES     
    1369 H6          48.1535   -27.4093   -32.2240 H6            1 RES     
    1370 H6          49.2164   -27.0356   -29.3484 H6            1 RES     
    1371 H6          49.3332   -28.5455   -30.3420 H6            1 RES     
    1372 H6          50.1698   -27.0357   -30.8672 H6            1 RES     
    1373 H6          45.1053   -28.3856   -22.8006 H6            1 RES     
    1374 H6          45.8304   -29.5025   -21.6927 H6            1 RES     
    1375 H6          43.0390   -28.6591   -21.8903 H6            1 RES     
    1376 H6          43.0497   -30.3979   -22.3533 H6            1 RES     
    1377 H6          44.2964   -29.1593   -19.7704 H6            1 RES     
    1378 H6          44.4353   -30.8078   -20.3625 H6            1 RES     
    1379 H6          42.0789   -31.2613   -20.1927 H6            1 RES     
    1380 H6          42.9511   -30.9848   -18.6716 H6            1 RES     
    1381 H6          42.0964   -28.7457   -18.4535 H6            1 RES     
    1382 H6          41.1247   -28.8860   -19.9754 H6            1 RES     
    1383 H6          39.8883   -30.8283   -19.0776 H6            1 RES     
    1384 H6          40.8805   -30.8621   -17.5802 H6            1 RES     
    1385 H6          38.6337   -29.9041   -17.2265 H6            1 RES     
    1386 H6          38.9925   -28.5598   -18.3737 H6            1 RES     
    1387 H6          40.8733   -27.8199   -16.8267 H6            1 RES     
    1388 H6          39.3029   -27.9107   -15.9603 H6            1 RES     
    1389 H6          40.5145   -29.2271   -15.7489 H6            1 RES     
    1390 C0          46.5189   -34.2349   -22.7228 C0            1 RES     
    1391 C0          45.6894   -35.0217   -23.8359 C0            1 RES     
    1392 C0          45.8220   -36.5439   -23.4928 C0            1 RES     
    1393 C0          45.3249   -37.5179   -24.5801 C0            1 RES     
    1394 C0          45.4521   -39.0013   -24.1911 C0            1 RES     
    1395 C0          46.8791   -39.4936   -23.8904 C0            1 RES     
    1396 C0          47.9111   -39.2220   -24.9975 C0            1 RES     
    1397 C0          47.5259   -39.8320   -26.3568 C0            1 RES     
    1398 C0          48.5649   -39.5472   -27.4534 C0            1 RES     
    1399 C0          49.9122   -40.2462   -27.1979 C0            1 RES     
    1400 C0          50.9103   -40.0661   -28.3523 C0            1 RES     
    1401 C0          51.3571   -38.6166   -28.5431 C0            1 RES     
    1402 C0          44.2155   -34.6661   -24.3029 C0            1 RES     
    1403 C0          42.9886   -34.8461   -23.3647 C0            1 RES     
    1404 C0          42.4429   -33.5024   -22.8492 C0            1 RES     
    1405 C0          41.2808   -33.5691   -21.8720 C0            1 RES     
    1406 C0          39.9228   -33.9576   -22.4394 C0            1 RES     
    1407 C0          38.8927   -33.7841   -21.3046 C0            1 RES     
    1408 C0          37.4375   -33.9831   -21.7325 C0            1 RES     
    1409 C0          36.9551   -32.8833   -22.6796 C0            1 RES     
    1410 H6          46.5097   -34.8337   -21.7823 H6            1 RES     
    1411 H6          47.5805   -34.3633   -23.0332 H6            1 RES     
    1412 H6          46.2688   -34.8420   -24.7708 H6            1 RES     
    1413 H6          45.2696   -36.7533   -22.5514 H6            1 RES     
    1414 H6          46.8974   -36.7584   -23.3127 H6            1 RES     
    1415 H6          45.8704   -37.3209   -25.5267 H6            1 RES     
    1416 H6          44.2424   -37.3720   -24.7616 H6            1 RES     
    1417 H6          45.0306   -39.6059   -25.0224 H6            1 RES     
    1418 H6          44.8209   -39.2005   -23.2973 H6            1 RES     
    1419 H6          46.8282   -40.5879   -23.6993 H6            1 RES     
    1420 H6          47.2424   -39.0154   -22.9558 H6            1 RES     
    1421 H6          48.0504   -38.1260   -25.1148 H6            1 RES     
    1422 H6          48.8727   -39.6500   -24.6480 H6            1 RES     
    1423 H6          46.5709   -39.3790   -26.6958 H6            1 RES     
    1424 H6          47.3749   -40.9287   -26.2580 H6            1 RES     
    1425 H6          48.1536   -39.9282   -28.4134 H6            1 RES     
    1426 H6          48.6984   -38.4482   -27.5439 H6            1 RES     
    1427 H6          50.3817   -39.8765   -26.2630 H6            1 RES     
    1428 H6          49.7201   -41.3356   -27.0859 H6            1 RES     
    1429 H6          50.4662   -40.4477   -29.2972 H6            1 RES     
    1430 H6          51.8124   -40.6737   -28.1241 H6            1 RES     
    1431 H6          50.5055   -37.9659   -28.8266 H6            1 RES     
    1432 H6          51.8212   -38.2320   -27.6100 H6            1 RES     
    1433 H6          52.1093   -38.5695   -29.3584 H6            1 RES     
    1434 H6          44.0262   -35.3359   -25.1618 H6            1 RES     
    1435 H6          44.1527   -33.7132   -24.8613 H6            1 RES     
    1436 H6          42.1567   -35.2653   -23.9726 H6            1 RES     
    1437 H6          43.2096   -35.5736   -22.5576 H6            1 RES     
    1438 H6          42.1800   -32.8399   -23.7050 H6            1 RES     
    1439 H6          43.2027   -33.0006   -22.2605 H6            1 RES     
    1440 H6          41.5529   -34.2080   -21.0039 H6            1 RES     
    1441 H6          41.1432   -32.5308   -21.5277 H6            1 RES     
    1442 H6          39.6971   -33.2681   -23.2802 H6            1 RES     
    1443 H6          39.9279   -35.0024   -22.8139 H6            1 RES     
    1444 H6          39.1348   -34.5180   -20.5046 H6            1 RES     
    1445 H6          38.9741   -32.7649   -20.8613 H6            1 RES     
    1446 H6          36.8127   -33.9295   -20.8140 H6            1 RES     
    1447 H6          37.3080   -34.9830   -22.1921 H6            1 RES     
    1448 H6          37.5095   -32.9025   -23.6388 H6            1 RES     
    1449 H6          35.8781   -33.0347   -22.8980 H6            1 RES     
    1450 H6          37.0806   -31.8849   -22.2060 H6            1 RES     
    1451 H5           6.3992     8.1748    11.5229 H5            1 RES     
    1452 H5          54.6479   -29.3335   -23.0556 H5            1 RES     
@<TRIPOS>BOND
       1        1        2 1
       2        1        8 1
       3        1       24 1
       4        1       85 1
       5        2        3 1
       6        2        6 1
       7        3        4 1
       8        3        7 1
       9        4        5 1
      10        5        6 1
      11        5     1451 1
      12        6       12 1
      13        7        8 1
      14        7       11 1
      15        8        9 1
      16        9       10 1
      17        9       13 1
      18       10       11 1
      19       10       16 1
      20       14       15 1
      21       14       22 1
      22       15       16 1
      23       15       23 1
      24       16       17 1
      25       17       18 1
      26       17       21 1
      27       18       19 1
      28       19       20 1
      29       20       21 1
      30       21       22 1
      31       22      150 1
      32       24       25 1
      33       24       44 1
      34       24       45 1
      35       25       26 1
      36       25       36 1
      37       25       46 1
      38       26       27 1
      39       26       47 1
      40       26       48 1
      41       27       28 1
      42       27       49 1
      43       27       50 1
      44       28       29 1
      45       28       51 1
      46       28       52 1
      47       29       30 1
      48       29       53 1
      49       29       54 1
      50       30       31 1
      51       30       55 1
      52       30       56 1
      53       31       32 1
      54       31       57 1
      55       31       58 1
      56       32       33 1
      57       32       59 1
      58       32       60 1
      59       33       34 1
      60       33       61 1
      61       33       62 1
      62       34       35 1
      63       34       63 1
      64       34       64 1
      65       35       65 1
      66       35       66 1
      67       35       67 1
      68       36       37 1
      69       36       68 1
      70       36       69 1
      71       37       38 1
      72       37       70 1
      73       37       71 1
      74       38       39 1
      75       38       72 1
      76       38       73 1
      77       39       40 1
      78       39       74 1
      79       39       75 1
      80       40       41 1
      81       40       76 1
      82       40       77 1
      83       41       42 1
      84       41       78 1
      85       41       79 1
      86       42       43 1
      87       42       80 1
      88       42       81 1
      89       43       82 1
      90       43       83 1
      91       43       84 1
      92       85       86 1
      93       85      105 1
      94       85      106 1
      95       86       87 1
      96       86       97 1
      97       86      107 1
      98       87       88 1
      99       87      108 1
     100       87      109 1
     101       88       89 1
     102       88      110 1
     103       88      111 1
     104       89       90 1
     105       89      112 1
     106       89      113 1
     107       90       91 1
     108       90      114 1
     109       90      115 1
     110       91       92 1
     111       91      116 1
     112       91      117 1
     113       92       93 1
     114       92      118 1
     115       92      119 1
     116       93       94 1
     117       93      120 1
     118       93      121 1
     119       94       95 1
     120       94      122 1
     121       94      123 1
     122       95       96 1
     123       95      124 1
     124       95      125 1
     125       96      126 1
     126       96      127 1
     127       96      128 1
     128       97       98 1
     129       97      129 1
     130       97      130 1
     131       98       99 1
     132       98      131 1
     133       98      132 1
     134       99      100 1
     135       99      133 1
     136       99      134 1
     137      100      101 1
     138      100      135 1
     139      100      136 1
     140      101      102 1
     141      101      137 1
     142      101      138 1
     143      102      103 1
     144      102      139 1
     145      102      140 1
     146      103      104 1
     147      103      141 1
     148      103      142 1
     149      104      143 1
     150      104      144 1
     151      104      145 1
     152      146      147 1
     153      146      153 1
     154      146      169 1
     155      146      230 1
     156      147      148 1
     157      147      151 1
     158      148      149 1
     159      148      152 1
     160      149      150 1
     161      150      151 1
     162      151      157 1
     163      152      153 1
     164      152      156 1
     165      153      154 1
     166      154      155 1
     167      154      158 1
     168      155      156 1
     169      155      161 1
     170      159      160 1
     171      159      167 1
     172      160      161 1
     173      160      168 1
     174      161      162 1
     175      162      163 1
     176      162      166 1
     177      163      164 1
     178      164      165 1
     179      165      166 1
     180      166      167 1
     181      167      295 1
     182      169      170 1
     183      169      189 1
     184      169      190 1
     185      170      171 1
     186      170      181 1
     187      170      191 1
     188      171      172 1
     189      171      192 1
     190      171      193 1
     191      172      173 1
     192      172      194 1
     193      172      195 1
     194      173      174 1
     195      173      196 1
     196      173      197 1
     197      174      175 1
     198      174      198 1
     199      174      199 1
     200      175      176 1
     201      175      200 1
     202      175      201 1
     203      176      177 1
     204      176      202 1
     205      176      203 1
     206      177      178 1
     207      177      204 1
     208      177      205 1
     209      178      179 1
     210      178      206 1
     211      178      207 1
     212      179      180 1
     213      179      208 1
     214      179      209 1
     215      180      210 1
     216      180      211 1
     217      180      212 1
     218      181      182 1
     219      181      213 1
     220      181      214 1
     221      182      183 1
     222      182      215 1
     223      182      216 1
     224      183      184 1
     225      183      217 1
     226      183      218 1
     227      184      185 1
     228      184      219 1
     229      184      220 1
     230      185      186 1
     231      185      221 1
     232      185      222 1
     233      186      187 1
     234      186      223 1
     235      186      224 1
     236      187      188 1
     237      187      225 1
     238      187      226 1
     239      188      227 1
     240      188      228 1
     241      188      229 1
     242      230      231 1
     243      230      250 1
     244      230      251 1
     245      231      232 1
     246      231      242 1
     247      231      252 1
     248      232      233 1
     249      232      253 1
     250      232      254 1
     251      233      234 1
     252      233      255 1
     253      233      256 1
     254      234      235 1
     255      234      257 1
     256      234      258 1
     257      235      236 1
     258      235      259 1
     259      235      260 1
     260      236      237 1
     261      236      261 1
     262      236      262 1
     263      237      238 1
     264      237      263 1
     265      237      264 1
     266      238      239 1
     267      238      265 1
     268      238      266 1
     269      239      240 1
     270      239      267 1
     271      239      268 1
     272      240      241 1
     273      240      269 1
     274      240      270 1
     275      241      271 1
     276      241      272 1
     277      241      273 1
     278      242      243 1
     279      242      274 1
     280      242      275 1
     281      243      244 1
     282      243      276 1
     283      243      277 1
     284      244      245 1
     285      244      278 1
     286      244      279 1
     287      245      246 1
     288      245      280 1
     289      245      281 1
     290      246      247 1
     291      246      282 1
     292      246      283 1
     293      247      248 1
     294      247      284 1
     295      247      285 1
     296      248      249 1
     297      248      286 1
     298      248      287 1
     299      249      288 1
     300      249      289 1
     301      249      290 1
     302      291      292 1
     303      291      298 1
     304      291      314 1
     305      291      375 1
     306      292      293 1
     307      292      296 1
     308      293      294 1
     309      293      297 1
     310      294      295 1
     311      295      296 1
     312      296      302 1
     313      297      298 1
     314      297      301 1
     315      298      299 1
     316      299      300 1
     317      299      303 1
     318      300      301 1
     319      300      306 1
     320      304      305 1
     321      304      312 1
     322      305      306 1
     323      305      313 1
     324      306      307 1
     325      307      308 1
     326      307      311 1
     327      308      309 1
     328      309      310 1
     329      310      311 1
     330      311      312 1
     331      312      440 1
     332      314      315 1
     333      314      334 1
     334      314      335 1
     335      315      316 1
     336      315      326 1
     337      315      336 1
     338      316      317 1
     339      316      337 1
     340      316      338 1
     341      317      318 1
     342      317      339 1
     343      317      340 1
     344      318      319 1
     345      318      341 1
     346      318      342 1
     347      319      320 1
     348      319      343 1
     349      319      344 1
     350      320      321 1
     351      320      345 1
     352      320      346 1
     353      321      322 1
     354      321      347 1
     355      321      348 1
     356      322      323 1
     357      322      349 1
     358      322      350 1
     359      323      324 1
     360      323      351 1
     361      323      352 1
     362      324      325 1
     363      324      353 1
     364      324      354 1
     365      325      355 1
     366      325      356 1
     367      325      357 1
     368      326      327 1
     369      326      358 1
     370      326      359 1
     371      327      328 1
     372      327      360 1
     373      327      361 1
     374      328      329 1
     375      328      362 1
     376      328      363 1
     377      329      330 1
     378      329      364 1
     379      329      365 1
     380      330      331 1
     381      330      366 1
     382      330      367 1
     383      331      332 1
     384      331      368 1
     385      331      369 1
     386      332      333 1
     387      332      370 1
     388      332      371 1
     389      333      372 1
     390      333      373 1
     391      333      374 1
     392      375      376 1
     393      375      395 1
     394      375      396 1
     395      376      377 1
     396      376      387 1
     397      376      397 1
     398      377      378 1
     399      377      398 1
     400      377      399 1
     401      378      379 1
     402      378      400 1
     403      378      401 1
     404      379      380 1
     405      379      402 1
     406      379      403 1
     407      380      381 1
     408      380      404 1
     409      380      405 1
     410      381      382 1
     411      381      406 1
     412      381      407 1
     413      382      383 1
     414      382      408 1
     415      382      409 1
     416      383      384 1
     417      383      410 1
     418      383      411 1
     419      384      385 1
     420      384      412 1
     421      384      413 1
     422      385      386 1
     423      385      414 1
     424      385      415 1
     425      386      416 1
     426      386      417 1
     427      386      418 1
     428      387      388 1
     429      387      419 1
     430      387      420 1
     431      388      389 1
     432      388      421 1
     433      388      422 1
     434      389      390 1
     435      389      423 1
     436      389      424 1
     437      390      391 1
     438      390      425 1
     439      390      426 1
     440      391      392 1
     441      391      427 1
     442      391      428 1
     443      392      393 1
     444      392      429 1
     445      392      430 1
     446      393      394 1
     447      393      431 1
     448      393      432 1
     449      394      433 1
     450      394      434 1
     451      394      435 1
     452      436      437 1
     453      436      443 1
     454      436      459 1
     455      436      520 1
     456      437      438 1
     457      437      441 1
     458      438      439 1
     459      438      442 1
     460      439      440 1
     461      440      441 1
     462      441      447 1
     463      442      443 1
     464      442      446 1
     465      443      444 1
     466      444      445 1
     467      444      448 1
     468      445      446 1
     469      445      451 1
     470      449      450 1
     471      449      457 1
     472      450      451 1
     473      450      458 1
     474      451      452 1
     475      452      453 1
     476      452      456 1
     477      453      454 1
     478      454      455 1
     479      455      456 1
     480      456      457 1
     481      457      585 1
     482      459      460 1
     483      459      479 1
     484      459      480 1
     485      460      461 1
     486      460      471 1
     487      460      481 1
     488      461      462 1
     489      461      482 1
     490      461      483 1
     491      462      463 1
     492      462      484 1
     493      462      485 1
     494      463      464 1
     495      463      486 1
     496      463      487 1
     497      464      465 1
     498      464      488 1
     499      464      489 1
     500      465      466 1
     501      465      490 1
     502      465      491 1
     503      466      467 1
     504      466      492 1
     505      466      493 1
     506      467      468 1
     507      467      494 1
     508      467      495 1
     509      468      469 1
     510      468      496 1
     511      468      497 1
     512      469      470 1
     513      469      498 1
     514      469      499 1
     515      470      500 1
     516      470      501 1
     517      470      502 1
     518      471      472 1
     519      471      503 1
     520      471      504 1
     521      472      473 1
     522      472      505 1
     523      472      506 1
     524      473      474 1
     525      473      507 1
     526      473      508 1
     527      474      475 1
     528      474      509 1
     529      474      510 1
     530      475      476 1
     531      475      511 1
     532      475      512 1
     533      476      477 1
     534      476      513 1
     535      476      514 1
     536      477      478 1
     537      477      515 1
     538      477      516 1
     539      478      517 1
     540      478      518 1
     541      478      519 1
     542      520      521 1
     543      520      540 1
     544      520      541 1
     545      521      522 1
     546      521      532 1
     547      521      542 1
     548      522      523 1
     549      522      543 1
     550      522      544 1
     551      523      524 1
     552      523      545 1
     553      523      546 1
     554      524      525 1
     555      524      547 1
     556      524      548 1
     557      525      526 1
     558      525      549 1
     559      525      550 1
     560      526      527 1
     561      526      551 1
     562      526      552 1
     563      527      528 1
     564      527      553 1
     565      527      554 1
     566      528      529 1
     567      528      555 1
     568      528      556 1
     569      529      530 1
     570      529      557 1
     571      529      558 1
     572      530      531 1
     573      530      559 1
     574      530      560 1
     575      531      561 1
     576      531      562 1
     577      531      563 1
     578      532      533 1
     579      532      564 1
     580      532      565 1
     581      533      534 1
     582      533      566 1
     583      533      567 1
     584      534      535 1
     585      534      568 1
     586      534      569 1
     587      535      536 1
     588      535      570 1
     589      535      571 1
     590      536      537 1
     591      536      572 1
     592      536      573 1
     593      537      538 1
     594      537      574 1
     595      537      575 1
     596      538      539 1
     597      538      576 1
     598      538      577 1
     599      539      578 1
     600      539      579 1
     601      539      580 1
     602      581      582 1
     603      581      588 1
     604      581      604 1
     605      581      665 1
     606      582      583 1
     607      582      586 1
     608      583      584 1
     609      583      587 1
     610      584      585 1
     611      585      586 1
     612      586      592 1
     613      587      588 1
     614      587      591 1
     615      588      589 1
     616      589      590 1
     617      589      593 1
     618      590      591 1
     619      590      596 1
     620      594      595 1
     621      594      602 1
     622      595      596 1
     623      595      603 1
     624      596      597 1
     625      597      598 1
     626      597      601 1
     627      598      599 1
     628      599      600 1
     629      600      601 1
     630      601      602 1
     631      602      730 1
     632      604      605 1
     633      604      624 1
     634      604      625 1
     635      605      606 1
     636      605      616 1
     637      605      626 1
     638      606      607 1
     639      606      627 1
     640      606      628 1
     641      607      608 1
     642      607      629 1
     643      607      630 1
     644      608      609 1
     645      608      631 1
     646      608      632 1
     647      609      610 1
     648      609      633 1
     649      609      634 1
     650      610      611 1
     651      610      635 1
     652      610      636 1
     653      611      612 1
     654      611      637 1
     655      611      638 1
     656      612      613 1
     657      612      639 1
     658      612      640 1
     659      613      614 1
     660      613      641 1
     661      613      642 1
     662      614      615 1
     663      614      643 1
     664      614      644 1
     665      615      645 1
     666      615      646 1
     667      615      647 1
     668      616      617 1
     669      616      648 1
     670      616      649 1
     671      617      618 1
     672      617      650 1
     673      617      651 1
     674      618      619 1
     675      618      652 1
     676      618      653 1
     677      619      620 1
     678      619      654 1
     679      619      655 1
     680      620      621 1
     681      620      656 1
     682      620      657 1
     683      621      622 1
     684      621      658 1
     685      621      659 1
     686      622      623 1
     687      622      660 1
     688      622      661 1
     689      623      662 1
     690      623      663 1
     691      623      664 1
     692      665      666 1
     693      665      685 1
     694      665      686 1
     695      666      667 1
     696      666      677 1
     697      666      687 1
     698      667      668 1
     699      667      688 1
     700      667      689 1
     701      668      669 1
     702      668      690 1
     703      668      691 1
     704      669      670 1
     705      669      692 1
     706      669      693 1
     707      670      671 1
     708      670      694 1
     709      670      695 1
     710      671      672 1
     711      671      696 1
     712      671      697 1
     713      672      673 1
     714      672      698 1
     715      672      699 1
     716      673      674 1
     717      673      700 1
     718      673      701 1
     719      674      675 1
     720      674      702 1
     721      674      703 1
     722      675      676 1
     723      675      704 1
     724      675      705 1
     725      676      706 1
     726      676      707 1
     727      676      708 1
     728      677      678 1
     729      677      709 1
     730      677      710 1
     731      678      679 1
     732      678      711 1
     733      678      712 1
     734      679      680 1
     735      679      713 1
     736      679      714 1
     737      680      681 1
     738      680      715 1
     739      680      716 1
     740      681      682 1
     741      681      717 1
     742      681      718 1
     743      682      683 1
     744      682      719 1
     745      682      720 1
     746      683      684 1
     747      683      721 1
     748      683      722 1
     749      684      723 1
     750      684      724 1
     751      684      725 1
     752      726      727 1
     753      726      733 1
     754      726      749 1
     755      726      810 1
     756      727      728 1
     757      727      731 1
     758      728      729 1
     759      728      732 1
     760      729      730 1
     761      730      731 1
     762      731      737 1
     763      732      733 1
     764      732      736 1
     765      733      734 1
     766      734      735 1
     767      734      738 1
     768      735      736 1
     769      735      741 1
     770      739      740 1
     771      739      747 1
     772      740      741 1
     773      740      748 1
     774      741      742 1
     775      742      743 1
     776      742      746 1
     777      743      744 1
     778      744      745 1
     779      745      746 1
     780      746      747 1
     781      747      875 1
     782      749      750 1
     783      749      769 1
     784      749      770 1
     785      750      751 1
     786      750      761 1
     787      750      771 1
     788      751      752 1
     789      751      772 1
     790      751      773 1
     791      752      753 1
     792      752      774 1
     793      752      775 1
     794      753      754 1
     795      753      776 1
     796      753      777 1
     797      754      755 1
     798      754      778 1
     799      754      779 1
     800      755      756 1
     801      755      780 1
     802      755      781 1
     803      756      757 1
     804      756      782 1
     805      756      783 1
     806      757      758 1
     807      757      784 1
     808      757      785 1
     809      758      759 1
     810      758      786 1
     811      758      787 1
     812      759      760 1
     813      759      788 1
     814      759      789 1
     815      760      790 1
     816      760      791 1
     817      760      792 1
     818      761      762 1
     819      761      793 1
     820      761      794 1
     821      762      763 1
     822      762      795 1
     823      762      796 1
     824      763      764 1
     825      763      797 1
     826      763      798 1
     827      764      765 1
     828      764      799 1
     829      764      800 1
     830      765      766 1
     831      765      801 1
     832      765      802 1
     833      766      767 1
     834      766      803 1
     835      766      804 1
     836      767      768 1
     837      767      805 1
     838      767      806 1
     839      768      807 1
     840      768      808 1
     841      768      809 1
     842      810      811 1
     843      810      830 1
     844      810      831 1
     845      811      812 1
     846      811      822 1
     847      811      832 1
     848      812      813 1
     849      812      833 1
     850      812      834 1
     851      813      814 1
     852      813      835 1
     853      813      836 1
     854      814      815 1
     855      814      837 1
     856      814      838 1
     857      815      816 1
     858      815      839 1
     859      815      840 1
     860      816      817 1
     861      816      841 1
     862      816      842 1
     863      817      818 1
     864      817      843 1
     865      817      844 1
     866      818      819 1
     867      818      845 1
     868      818      846 1
     869      819      820 1
     870      819      847 1
     871      819      848 1
     872      820      821 1
     873      820      849 1
     874      820      850 1
     875      821      851 1
     876      821      852 1
     877      821      853 1
     878      822      823 1
     879      822      854 1
     880      822      855 1
     881      823      824 1
     882      823      856 1
     883      823      857 1
     884      824      825 1
     885      824      858 1
     886      824      859 1
     887      825      826 1
     888      825      860 1
     889      825      861 1
     890      826      827 1
     891      826      862 1
     892      826      863 1
     893      827      828 1
     894      827      864 1
     895      827      865 1
     896      828      829 1
     897      828      866 1
     898      828      867 1
     899      829      868 1
     900      829      869 1
     901      829      870 1
     902      871      872 1
     903      871      878 1
     904      871      894 1
     905      871      955 1
     906      872      873 1
     907      872      876 1
     908      873      874 1
     909      873      877 1
     910      874      875 1
     911      875      876 1
     912      876      882 1
     913      877      878 1
     914      877      881 1
     915      878      879 1
     916      879      880 1
     917      879      883 1
     918      880      881 1
     919      880      886 1
     920      884      885 1
     921      884      892 1
     922      885      886 1
     923      885      893 1
     924      886      887 1
     925      887      888 1
     926      887      891 1
     927      888      889 1
     928      889      890 1
     929      890      891 1
     930      891      892 1
     931      892     1020 1
     932      894      895 1
     933      894      914 1
     934      894      915 1
     935      895      896 1
     936      895      906 1
     937      895      916 1
     938      896      897 1
     939      896      917 1
     940      896      918 1
     941      897      898 1
     942      897      919 1
     943      897      920 1
     944      898      899 1
     945      898      921 1
     946      898      922 1
     947      899      900 1
     948      899      923 1
     949      899      924 1
     950      900      901 1
     951      900      925 1
     952      900      926 1
     953      901      902 1
     954      901      927 1
     955      901      928 1
     956      902      903 1
     957      902      929 1
     958      902      930 1
     959      903      904 1
     960      903      931 1
     961      903      932 1
     962      904      905 1
     963      904      933 1
     964      904      934 1
     965      905      935 1
     966      905      936 1
     967      905      937 1
     968      906      907 1
     969      906      938 1
     970      906      939 1
     971      907      908 1
     972      907      940 1
     973      907      941 1
     974      908      909 1
     975      908      942 1
     976      908      943 1
     977      909      910 1
     978      909      944 1
     979      909      945 1
     980      910      911 1
     981      910      946 1
     982      910      947 1
     983      911      912 1
     984      911      948 1
     985      911      949 1
     986      912      913 1
     987      912      950 1
     988      912      951 1
     989      913      952 1
     990      913      953 1
     991      913      954 1
     992      955      956 1
     993      955      975 1
     994      955      976 1
     995      956      957 1
     996      956      967 1
     997      956      977 1
     998      957      958 1
     999      957      978 1
    1000      957      979 1
    1001      958      959 1
    1002      958      980 1
    1003      958      981 1
    1004      959      960 1
    1005      959      982 1
    1006      959      983 1
    1007      960      961 1
    1008      960      984 1
    1009      960      985 1
    1010      961      962 1
    1011      961      986 1
    1012      961      987 1
    1013      962      963 1
    1014      962      988 1
    1015      962      989 1
    1016      963      964 1
    1017      963      990 1
    1018      963      991 1
    1019      964      965 1
    1020      964      992 1
    1021      964      993 1
    1022      965      966 1
    1023      965      994 1
    1024      965      995 1
    1025      966      996 1
    1026      966      997 1
    1027      966      998 1
    1028      967      968 1
    1029      967      999 1
    1030      967     1000 1
    1031      968      969 1
    1032      968     1001 1
    1033      968     1002 1
    1034      969      970 1
    1035      969     1003 1
    1036      969     1004 1
    1037      970      971 1
    1038      970     1005 1
    1039      970     1006 1
    1040      971      972 1
    1041      971     1007 1
    1042      971     1008 1
    1043      972      973 1
    1044      972     1009 1
    1045      972     1010 1
    1046      973      974 1
    1047      973     1011 1
    1048      973     1012 1
    1049      974     1013 1
    1050      974     1014 1
    1051      974     1015 1
    1052     1016     1017 1
    1053     1016     1023 1
    1054     1016     1039 1
    1055     1016     1100 1
    1056     1017     1018 1
    1057     1017     1021 1
    1058     1018     1019 1
    1059     1018     1022 1
    1060     1019     1020 1
    1061     1020     1021 1
    1062     1021     1027 1
    1063     1022     1023 1
    1064     1022     1026 1
    1065     1023     1024 1
    1066     1024     1025 1
    1067     1024     1028 1
    1068     1025     1026 1
    1069     1025     1031 1
    1070     1029     1030 1
    1071     1029     1037 1
    1072     1030     1031 1
    1073     1030     1038 1
    1074     1031     1032 1
    1075     1032     1033 1
    1076     1032     1036 1
    1077     1033     1034 1
    1078     1034     1035 1
    1079     1035     1036 1
    1080     1036     1037 1
    1081     1037     1165 1
    1082     1039     1040 1
    1083     1039     1059 1
    1084     1039     1060 1
    1085     1040     1041 1
    1086     1040     1051 1
    1087     1040     1061 1
    1088     1041     1042 1
    1089     1041     1062 1
    1090     1041     1063 1
    1091     1042     1043 1
    1092     1042     1064 1
    1093     1042     1065 1
    1094     1043     1044 1
    1095     1043     1066 1
    1096     1043     1067 1
    1097     1044     1045 1
    1098     1044     1068 1
    1099     1044     1069 1
    1100     1045     1046 1
    1101     1045     1070 1
    1102     1045     1071 1
    1103     1046     1047 1
    1104     1046     1072 1
    1105     1046     1073 1
    1106     1047     1048 1
    1107     1047     1074 1
    1108     1047     1075 1
    1109     1048     1049 1
    1110     1048     1076 1
    1111     1048     1077 1
    1112     1049     1050 1
    1113     1049     1078 1
    1114     1049     1079 1
    1115     1050     1080 1
    1116     1050     1081 1
    1117     1050     1082 1
    1118     1051     1052 1
    1119     1051     1083 1
    1120     1051     1084 1
    1121     1052     1053 1
    1122     1052     1085 1
    1123     1052     1086 1
    1124     1053     1054 1
    1125     1053     1087 1
    1126     1053     1088 1
    1127     1054     1055 1
    1128     1054     1089 1
    1129     1054     1090 1
    1130     1055     1056 1
    1131     1055     1091 1
    1132     1055     1092 1
    1133     1056     1057 1
    1134     1056     1093 1
    1135     1056     1094 1
    1136     1057     1058 1
    1137     1057     1095 1
    1138     1057     1096 1
    1139     1058     1097 1
    1140     1058     1098 1
    1141     1058     1099 1
    1142     1100     1101 1
    1143     1100     1120 1
    1144     1100     1121 1
    1145     1101     1102 1
    1146     1101     1112 1
    1147     1101     1122 1
    1148     1102     1103 1
    1149     1102     1123 1
    1150     1102     1124 1
    1151     1103     1104 1
    1152     1103     1125 1
    1153     1103     1126 1
    1154     1104     1105 1
    1155     1104     1127 1
    1156     1104     1128 1
    1157     1105     1106 1
    1158     1105     1129 1
    1159     1105     1130 1
    1160     1106     1107 1
    1161     1106     1131 1
    1162     1106     1132 1
    1163     1107     1108 1
    1164     1107     1133 1
    1165     1107     1134 1
    1166     1108     1109 1
    1167     1108     1135 1
    1168     1108     1136 1
    1169     1109     1110 1
    1170     1109     1137 1
    1171     1109     1138 1
    1172     1110     1111 1
    1173     1110     1139 1
    1174     1110     1140 1
    1175     1111     1141 1
    1176     1111     1142 1
    1177     1111     1143 1
    1178     1112     1113 1
    1179     1112     1144 1
    1180     1112     1145 1
    1181     1113     1114 1
    1182     1113     1146 1
    1183     1113     1147 1
    1184     1114     1115 1
    1185     1114     1148 1
    1186     1114     1149 1
    1187     1115     1116 1
    1188     1115     1150 1
    1189     1115     1151 1
    1190     1116     1117 1
    1191     1116     1152 1
    1192     1116     1153 1
    1193     1117     1118 1
    1194     1117     1154 1
    1195     1117     1155 1
    1196     1118     1119 1
    1197     1118     1156 1
    1198     1118     1157 1
    1199     1119     1158 1
    1200     1119     1159 1
    1201     1119     1160 1
    1202     1161     1162 1
    1203     1161     1168 1
    1204     1161     1184 1
    1205     1161     1245 1
    1206     1162     1163 1
    1207     1162     1166 1
    1208     1163     1164 1
    1209     1163     1167 1
    1210     1164     1165 1
    1211     1165     1166 1
    1212     1166     1172 1
    1213     1167     1168 1
    1214     1167     1171 1
    1215     1168     1169 1
    1216     1169     1170 1
    1217     1169     1173 1
    1218     1170     1171 1
    1219     1170     1176 1
    1220     1174     1175 1
    1221     1174     1182 1
    1222     1175     1176 1
    1223     1175     1183 1
    1224     1176     1177 1
    1225     1177     1178 1
    1226     1177     1181 1
    1227     1178     1179 1
    1228     1179     1180 1
    1229     1180     1181 1
    1230     1181     1182 1
    1231     1182     1310 1
    1232     1184     1185 1
    1233     1184     1204 1
    1234     1184     1205 1
    1235     1185     1186 1
    1236     1185     1196 1
    1237     1185     1206 1
    1238     1186     1187 1
    1239     1186     1207 1
    1240     1186     1208 1
    1241     1187     1188 1
    1242     1187     1209 1
    1243     1187     1210 1
    1244     1188     1189 1
    1245     1188     1211 1
    1246     1188     1212 1
    1247     1189     1190 1
    1248     1189     1213 1
    1249     1189     1214 1
    1250     1190     1191 1
    1251     1190     1215 1
    1252     1190     1216 1
    1253     1191     1192 1
    1254     1191     1217 1
    1255     1191     1218 1
    1256     1192     1193 1
    1257     1192     1219 1
    1258     1192     1220 1
    1259     1193     1194 1
    1260     1193     1221 1
    1261     1193     1222 1
    1262     1194     1195 1
    1263     1194     1223 1
    1264     1194     1224 1
    1265     1195     1225 1
    1266     1195     1226 1
    1267     1195     1227 1
    1268     1196     1197 1
    1269     1196     1228 1
    1270     1196     1229 1
    1271     1197     1198 1
    1272     1197     1230 1
    1273     1197     1231 1
    1274     1198     1199 1
    1275     1198     1232 1
    1276     1198     1233 1
    1277     1199     1200 1
    1278     1199     1234 1
    1279     1199     1235 1
    1280     1200     1201 1
    1281     1200     1236 1
    1282     1200     1237 1
    1283     1201     1202 1
    1284     1201     1238 1
    1285     1201     1239 1
    1286     1202     1203 1
    1287     1202     1240 1
    1288     1202     1241 1
    1289     1203     1242 1
    1290     1203     1243 1
    1291     1203     1244 1
    1292     1245     1246 1
    1293     1245     1265 1
    1294     1245     1266 1
    1295     1246     1247 1
    1296     1246     1257 1
    1297     1246     1267 1
    1298     1247     1248 1
    1299     1247     1268 1
    1300     1247     1269 1
    1301     1248     1249 1
    1302     1248     1270 1
    1303     1248     1271 1
    1304     1249     1250 1
    1305     1249     1272 1
    1306     1249     1273 1
    1307     1250     1251 1
    1308     1250     1274 1
    1309     1250     1275 1
    1310     1251     1252 1
    1311     1251     1276 1
    1312     1251     1277 1
    1313     1252     1253 1
    1314     1252     1278 1
    1315     1252     1279 1
    1316     1253     1254 1
    1317     1253     1280 1
    1318     1253     1281 1
    1319     1254     1255 1
    1320     1254     1282 1
    1321     1254     1283 1
    1322     1255     1256 1
    1323     1255     1284 1
    1324     1255     1285 1
    1325     1256     1286 1
    1326     1256     1287 1
    1327     1256     1288 1
    1328     1257     1258 1
    1329     1257     1289 1
    1330     1257     1290 1
    1331     1258     1259 1
    1332     1258     1291 1
    1333     1258     1292 1
    1334     1259     1260 1
    1335     1259     1293 1
    1336     1259     1294 1
    1337     1260     1261 1
    1338     1260     1295 1
    1339     1260     1296 1
    1340     1261     1262 1
    1341     1261     1297 1
    1342     1261     1298 1
    1343     1262     1263 1
    1344     1262     1299 1
    1345     1262     1300 1
    1346     1263     1264 1
    1347     1263     1301 1
    1348     1263     1302 1
    1349     1264     1303 1
    1350     1264     1304 1
    1351     1264     1305 1
    1352     1306     1307 1
    1353     1306     1313 1
    1354     1306     1329 1
    1355     1306     1390 1
    1356     1307     1308 1
    1357     1307     1311 1
    1358     1308     1309 1
    1359     1308     1312 1
    1360     1309     1310 1
    1361     1310     1311 1
    1362     1311     1317 1
    1363     1312     1313 1
    1364     1312     1316 1
    1365     1313     1314 1
    1366     1314     1315 1
    1367     1314     1318 1
    1368     1315     1316 1
    1369     1315     1321 1
    1370     1319     1320 1
    1371     1319     1327 1
    1372     1320     1321 1
    1373     1320     1328 1
    1374     1321     1322 1
    1375     1322     1323 1
    1376     1322     1326 1
    1377     1323     1324 1
    1378     1324     1325 1
    1379     1325     1326 1
    1380     1326     1327 1
    1381     1327     1452 1
    1382     1329     1330 1
    1383     1329     1349 1
    1384     1329     1350 1
    1385     1330     1331 1
    1386     1330     1341 1
    1387     1330     1351 1
    1388     1331     1332 1
    1389     1331     1352 1
    1390     1331     1353 1
    1391     1332     1333 1
    1392     1332     1354 1
    1393     1332     1355 1
    1394     1333     1334 1
    1395     1333     1356 1
    1396     1333     1357 1
    1397     1334     1335 1
    1398     1334     1358 1
    1399     1334     1359 1
    1400     1335     1336 1
    1401     1335     1360 1
    1402     1335     1361 1
    1403     1336     1337 1
    1404     1336     1362 1
    1405     1336     1363 1
    1406     1337     1338 1
    1407     1337     1364 1
    1408     1337     1365 1
    1409     1338     1339 1
    1410     1338     1366 1
    1411     1338     1367 1
    1412     1339     1340 1
    1413     1339     1368 1
    1414     1339     1369 1
    1415     1340     1370 1
    1416     1340     1371 1
    1417     1340     1372 1
    1418     1341     1342 1
    1419     1341     1373 1
    1420     1341     1374 1
    1421     1342     1343 1
    1422     1342     1375 1
    1423     1342     1376 1
    1424     1343     1344 1
    1425     1343     1377 1
    1426     1343     1378 1
    1427     1344     1345 1
    1428     1344     1379 1
    1429     1344     1380 1
    1430     1345     1346 1
    1431     1345     1381 1
    1432     1345     1382 1
    1433     1346     1347 1
    1434     1346     1383 1
    1435     1346     1384 1
    1436     1347     1348 1
    1437     1347     1385 1
    1438     1347     1386 1
    1439     1348     1387 1
    1440     1348     1388 1
    1441     1348     1389 1
    1442     1390     1391 1
    1443     1390     1410 1
    1444     1390     1411 1
    1445     1391     1392 1
    1446     1391     1402 1
    1447     1391     1412 1
    1448     1392     1393 1
    1449     1392     1413 1
    1450     1392     1414 1
    1451     1393     1394 1
    1452     1393     1415 1
    1453     1393     1416 1
    1454     1394     1395 1
    1455     1394     1417 1
    1456     1394     1418 1
    1457     1395     1396 1
    1458     1395     1419 1
    1459     1395     1420 1
    1460     1396     1397 1
    1461     1396     1421 1
    1462     1396     1422 1
    1463     1397     1398 1
    1464     1397     1423 1
    1465     1397     1424 1
    1466     1398     1399 1
    1467     1398     1425 1
    1468     1398     1426 1
    1469     1399     1400 1
    1470     1399     1427 1
    1471     1399     1428 1
    1472     1400     1401 1
    1473     1400     1429 1
    1474     1400     1430 1
    1475     1401     1431 1
    1476     1401     1432 1
    1477     1401     1433 1
    1478     1402     1403 1
    1479     1402     1434 1
    1480     1402     1435 1
    1481     1403     1404 1
    1482     1403     1436 1
    1483     1403     1437 1
    1484     1404     1405 1
    1485     1404     1438 1
    1486     1404     1439 1
    1487     1405     1406 1
    1488     1405     1440 1
    1489     1405     1441 1
    1490     1406     1407 1
    1491     1406     1442 1
    1492     1406     1443 1
    1493     1407     1408 1
    1494     1407     1444 1
    1495     1407     1445 1
    1496     1408     1409 1
    1497     1408     1446 1
    1498     1408     1447 1
    1499     1409     1448 1
    1500     1409     1449 1
    1501     1409     1450 1
@<TRIPOS>SUBSTRUCTURE
       1 RES             1 RESIDUE    0 **** ROOT      0
