@<TRIPOS>MOLECULE
RES
36252 37501 1 0 1
SMALL
NO_CHARGES
@<TRIPOS>CRYSIN
 1208.9653   986.0111   891.4388    90.0000    90.0000    90.0000 1 1
@<TRIPOS>ATOM
       1 C0          10.1587     9.4980     8.7322 C0            1 RES     
       2 C1           9.1418     9.2070     9.8578 C1            1 RES     
       3 C1           9.7005     9.2883    11.0933 C1            1 RES     
       4 S2           8.6479     8.8882    12.3320 S2            1 RES     
       5 C1           7.3904     8.5422    11.2412 C1            1 RES     
       6 C1           7.8175     8.7428     9.9240 C1            1 RES     
       7 C1          11.0728     9.5882    10.9533 C1            1 RES     
       8 C1          11.3893     9.6295     9.6308 C1            1 RES     
       9 C1          12.7546     9.7786     9.4187 C1            1 RES     
      10 C1          13.4368     9.8832    10.6426 C1            1 RES     
      11 S2          12.3786     9.7762    11.9663 S2            1 RES     
      12 H3           7.1893     8.5042     9.0869 H3            1 RES     
      13 H3          13.2255     9.8047     8.4433 H3            1 RES     
      14 N4          16.8598    11.1173    11.5428 N4            1 RES     
      15 C1          15.5093    11.0917    11.3437 C1            1 RES     
      16 C1          14.8832     9.9474    10.8199 C1            1 RES     
      17 C1          15.6772     8.8357    10.5326 C1            1 RES     
      18 N4          15.1924     7.6517    10.0781 N4            1 RES     
      19 S2          16.5580     6.7249     9.9886 S2            1 RES     
      20 N4          17.7602     7.7427    10.4957 N4            1 RES     
      21 C1          17.0745     8.8807    10.7667 C1            1 RES     
      22 C1          17.6536    10.0458    11.2626 C1            1 RES     
      23 H5          14.9186    11.9709    11.5860 H5            1 RES     
      24 C0          10.0208    10.8110     7.8838 C0            1 RES     
      25 C0          10.2874    12.3126     8.2788 C0            1 RES     
      26 C0           9.8416    13.1495     7.0285 C0            1 RES     
      27 C0          10.0572    14.6664     7.0980 C0            1 RES     
      28 C0           9.5353    15.3915     5.8352 C0            1 RES     
      29 C0          10.2280    15.0130     4.5075 C0            1 RES     
      30 C0          11.7582    15.1761     4.5056 C0            1 RES     
      31 C0          12.2126    16.6070     4.8442 C0            1 RES     
      32 C0          13.7401    16.7537     4.8966 C0            1 RES     
      33 C0          14.4133    16.5720     3.5257 C0            1 RES     
      34 C0          15.9272    16.8339     3.5685 C0            1 RES     
      35 C0          16.6909    15.8160     4.4164 C0            1 RES     
      36 C0           9.6901    12.8797     9.6080 C0            1 RES     
      37 C0           8.1417    12.9799     9.7664 C0            1 RES     
      38 C0           7.7119    12.1449    10.9764 C0            1 RES     
      39 C0           6.2282    11.8258    11.1364 C0            1 RES     
      40 C0           5.3579    12.9283    11.7217 C0            1 RES     
      41 C0           3.9203    12.3798    11.8389 C0            1 RES     
      42 C0           2.9544    13.3002    12.5886 C0            1 RES     
      43 C0           3.2929    13.4082    14.0769 C0            1 RES     
      44 H6           9.0309    10.8174     7.5046 H6            1 RES     
      45 H6          10.7064    10.6515     7.0211 H6            1 RES     
      46 H6          11.3887    12.4184     8.3993 H6            1 RES     
      47 H6           8.7584    12.9810     6.8420 H6            1 RES     
      48 H6          10.3975    12.7636     6.1473 H6            1 RES     
      49 H6          11.1304    14.8917     7.2633 H6            1 RES     
      50 H6           9.4794    15.0785     7.9498 H6            1 RES     
      51 H6           9.6420    16.4842     5.9961 H6            1 RES     
      52 H6           8.4460    15.1949     5.7230 H6            1 RES     
      53 H6           9.7958    15.6459     3.7006 H6            1 RES     
      54 H6           9.9920    13.9585     4.2494 H6            1 RES     
      55 H6          12.2030    14.4656     5.2339 H6            1 RES     
      56 H6          12.1185    14.8941     3.4945 H6            1 RES     
      57 H6          11.8421    16.8704     5.8558 H6            1 RES     
      58 H6          11.7847    17.3303     4.1159 H6            1 RES     
      59 H6          13.9660    17.7801     5.2595 H6            1 RES     
      60 H6          14.1398    16.0276     5.6353 H6            1 RES     
      61 H6          14.2383    15.5505     3.1290 H6            1 RES     
      62 H6          13.9633    17.3042     2.8203 H6            1 RES     
      63 H6          16.1218    17.8595     3.9514 H6            1 RES     
      64 H6          16.3176    16.7735     2.5297 H6            1 RES     
      65 H6          16.3831    15.8637     5.4804 H6            1 RES     
      66 H6          16.5196    14.7893     4.0287 H6            1 RES     
      67 H6          17.7775    16.0378     4.3664 H6            1 RES     
      68 H6          10.0923    13.9062     9.7456 H6            1 RES     
      69 H6          10.1470    12.3278    10.4572 H6            1 RES     
      70 H6           7.8301    14.0338     9.9433 H6            1 RES     
      71 H6           7.6403    12.6215     8.8445 H6            1 RES     
      72 H6           8.1528    12.5186    11.9245 H6            1 RES     
      73 H6           8.1433    11.1868    10.7783 H6            1 RES     
      74 H6           5.8320    11.4789    10.1789 H6            1 RES     
      75 H6           6.1669    10.9694    11.8459 H6            1 RES     
      76 H6           5.7702    13.1751    12.7230 H6            1 RES     
      77 H6           5.3724    13.8383    11.0854 H6            1 RES     
      78 H6           3.5312    12.2133    10.8088 H6            1 RES     
      79 H6           3.9203    11.3956    12.3604 H6            1 RES     
      80 H6           1.9372    12.8569    12.5116 H6            1 RES     
      81 H6           2.9363    14.3055    12.1176 H6            1 RES     
      82 H6           4.2823    13.8806    14.2356 H6            1 RES     
      83 H6           2.5272    14.0273    14.5869 H6            1 RES     
      84 H6           3.2940    12.3976    14.5432 H6            1 RES     
      85 C0          10.1559     8.2015     7.8296 C0            1 RES     
      86 C0           9.6151     8.1128     6.3310 C0            1 RES     
      87 C0           9.3054     6.6016     6.0613 C0            1 RES     
      88 C0           9.0218     6.2315     4.5914 C0            1 RES     
      89 C0           8.6994     4.7422     4.3764 C0            1 RES     
      90 C0           9.8027     3.7526     4.7916 C0            1 RES     
      91 C0          11.1841     4.0150     4.1691 C0            1 RES     
      92 C0          11.1713     4.0202     2.6303 C0            1 RES     
      93 C0          12.5582     4.2888     2.0240 C0            1 RES     
      94 C0          13.5614     3.1540     2.2977 C0            1 RES     
      95 C0          14.9090     3.3602     1.5887 C0            1 RES     
      96 C0          15.6826     4.5738     2.1043 C0            1 RES     
      97 C0           8.4976     9.0475     5.7029 C0            1 RES     
      98 C0           7.0144     8.9823     6.1653 C0            1 RES     
      99 C0           6.6144    10.1954     7.0242 C0            1 RES     
     100 C0           5.2006    10.1986     7.5818 C0            1 RES     
     101 C0           4.0704    10.4627     6.5969 C0            1 RES     
     102 C0           2.7730    10.5889     7.4214 C0            1 RES     
     103 C0           1.5450    11.0095     6.6119 C0            1 RES     
     104 C0           1.6541    12.4446     6.0945 C0            1 RES     
     105 H6           9.7017     7.3731     8.4216 H6            1 RES     
     106 H6          11.2089     7.8460     7.7603 H6            1 RES     
     107 H6          10.5037     8.3830     5.7150 H6            1 RES     
     108 H6           8.4332     6.2942     6.6778 H6            1 RES     
     109 H6          10.1851     6.0104     6.3952 H6            1 RES     
     110 H6           9.8869     6.5317     3.9637 H6            1 RES     
     111 H6           8.1220     6.7641     4.2272 H6            1 RES     
     112 H6           8.4734     4.5977     3.2983 H6            1 RES     
     113 H6           7.7734     4.4840     4.9358 H6            1 RES     
     114 H6           9.4651     2.7303     4.5132 H6            1 RES     
     115 H6           9.9138     3.7702     5.8968 H6            1 RES     
     116 H6          11.5778     4.9874     4.5348 H6            1 RES     
     117 H6          11.8574     3.2158     4.5406 H6            1 RES     
     118 H6          10.5056     4.8363     2.2796 H6            1 RES     
     119 H6          10.7730     3.0567     2.2450 H6            1 RES     
     120 H6          12.4318     4.3814     0.9233 H6            1 RES     
     121 H6          12.9380     5.2573     2.4132 H6            1 RES     
     122 H6          13.7474     3.0407     3.3856 H6            1 RES     
     123 H6          13.1224     2.2060     1.9170 H6            1 RES     
     124 H6          14.7473     3.4580     0.4932 H6            1 RES     
     125 H6          15.5324     2.4576     1.7670 H6            1 RES     
     126 H6          15.1334     5.5163     1.9064 H6            1 RES     
     127 H6          15.8674     4.4761     3.1953 H6            1 RES     
     128 H6          16.6612     4.6328     1.5831 H6            1 RES     
     129 H6           8.4805     8.7793     4.6306 H6            1 RES     
     130 H6           8.8278    10.0952     5.5725 H6            1 RES     
     131 H6           6.3740     9.0640     5.2595 H6            1 RES     
     132 H6           6.7904     8.0074     6.6437 H6            1 RES     
     133 H6           6.8034    11.1408     6.4667 H6            1 RES     
     134 H6           7.2124    10.2166     7.9284 H6            1 RES     
     135 H6           5.0207     9.2674     8.1618 H6            1 RES     
     136 H6           5.1704    11.0624     8.2662 H6            1 RES     
     137 H6           4.2939    11.4157     6.0724 H6            1 RES     
     138 H6           3.9882     9.6448     5.8511 H6            1 RES     
     139 H6           2.5695     9.6038     7.8961 H6            1 RES     
     140 H6           2.9057    11.3347     8.2388 H6            1 RES     
     141 H6           0.6685    10.9675     7.2952 H6            1 RES     
     142 H6           1.3778    10.3015     5.7761 H6            1 RES     
     143 H6           2.4871    12.5527     5.3718 H6            1 RES     
     144 H6           0.7107    12.7213     5.5807 H6            1 RES     
     145 H6           1.8125    13.1482     6.9411 H6            1 RES     
     146 C0          22.9945    10.8050    10.5719 C0            1 RES     
     147 C1          21.5805    10.5370    11.1329 C1            1 RES     
     148 C1          21.6125     9.9754    12.3693 C1            1 RES     
     149 S2          20.0982     9.5871    12.9680 S2            1 RES     
     150 C1          19.3269    10.1260    11.5518 C1            1 RES     
     151 C1          20.2695    10.5983    10.6319 C1            1 RES     
     152 C1          22.9590     9.7801    12.7457 C1            1 RES     
     153 C1          23.7696    10.1571    11.7202 C1            1 RES     
     154 C1          25.1047     9.8590    11.9651 C1            1 RES     
     155 C1          25.2566     9.2763    13.2345 C1            1 RES     
     156 S2          23.7689     9.1138    14.0368 S2            1 RES     
     157 H3          19.9843    10.9117     9.6456 H3            1 RES     
     158 H3          25.9136    10.0463    11.2690 H3            1 RES     
     159 N4          28.2326     8.7770    15.4582 N4            1 RES     
     160 C1          27.0995     9.3185    14.9226 C1            1 RES     
     161 C1          26.4925     8.7405    13.7942 C1            1 RES     
     162 C1          27.0678     7.5886    13.2546 C1            1 RES     
     163 N4          26.5510     6.9006    12.2044 N4            1 RES     
     164 S2          27.5999     5.6306    12.0671 S2            1 RES     
     165 N4          28.6996     5.8941    13.2752 N4            1 RES     
     166 C1          28.2333     7.0346    13.8411 C1            1 RES     
     167 C1          28.8138     7.6575    14.9428 C1            1 RES     
     168 H5          26.6718    10.2107    15.3719 H5            1 RES     
     169 C0          23.4951    12.2831    10.4067 C0            1 RES     
     170 C0          23.9108    13.3460    11.4926 C0            1 RES     
     171 C0          24.1889    14.6646    10.6886 C0            1 RES     
     172 C0          24.6902    15.8719    11.4907 C0            1 RES     
     173 C0          24.8804    17.1261    10.6055 C0            1 RES     
     174 C0          25.9359    17.0045     9.4843 C0            1 RES     
     175 C0          27.3388    16.5854     9.9579 C0            1 RES     
     176 C0          27.9286    17.5379    11.0131 C0            1 RES     
     177 C0          29.3042    17.0869    11.5249 C0            1 RES     
     178 C0          30.4028    17.1573    10.4508 C0            1 RES     
     179 C0          31.7955    16.8142    11.0029 C0            1 RES     
     180 C0          31.9191    15.3619    11.4655 C0            1 RES     
     181 C0          22.9817    13.5951    12.7254 C0            1 RES     
     182 C0          21.5595    14.1942    12.4995 C0            1 RES     
     183 C0          20.5160    13.2120    13.0404 C0            1 RES     
     184 C0          19.0580    13.4246    12.6431 C0            1 RES     
     185 C0          18.2957    14.4934    13.4125 C0            1 RES     
     186 C0          16.8448    14.5058    12.8871 C0            1 RES     
     187 C0          15.8922    15.3955    13.6891 C0            1 RES     
     188 C0          15.6344    14.8502    15.0953 C0            1 RES     
     189 H6          22.7616    12.7824     9.8266 H6            1 RES     
     190 H6          24.4104    12.1924     9.7790 H6            1 RES     
     191 H6          24.8702    12.9923    11.9321 H6            1 RES     
     192 H6          23.2577    14.9804    10.1692 H6            1 RES     
     193 H6          24.9454    14.4323     9.9088 H6            1 RES     
     194 H6          25.6333    15.6162    12.0151 H6            1 RES     
     195 H6          23.9314    16.1451    12.2516 H6            1 RES     
     196 H6          25.1546    17.9753    11.2650 H6            1 RES     
     197 H6          23.9084    17.3942    10.1351 H6            1 RES     
     198 H6          26.0069    17.9885     8.9695 H6            1 RES     
     199 H6          25.5928    16.2692     8.7253 H6            1 RES     
     200 H6          27.2927    15.5569    10.3739 H6            1 RES     
     201 H6          27.9947    16.5594     9.0631 H6            1 RES     
     202 H6          27.2593    17.5515    11.8973 H6            1 RES     
     203 H6          27.9926    18.5713    10.6073 H6            1 RES     
     204 H6          29.5909    17.7654    12.3578 H6            1 RES     
     205 H6          29.2103    16.0579    11.9309 H6            1 RES     
     206 H6          30.1759    16.4762     9.6046 H6            1 RES     
     207 H6          30.4401    18.1986    10.0628 H6            1 RES     
     208 H6          32.0463    17.4964    11.8443 H6            1 RES     
     209 H6          32.5383    16.9781    10.1926 H6            1 RES     
     210 H6          31.2374    15.1480    12.3132 H6            1 RES     
     211 H6          31.6908    14.6718    10.6256 H6            1 RES     
     212 H6          32.9579    15.1727    11.8083 H6            1 RES     
     213 H6          23.5142    14.2870    13.4126 H6            1 RES     
     214 H6          22.9341    12.6574    13.3194 H6            1 RES     
     215 H6          21.4454    15.1576    13.0454 H6            1 RES     
     216 H6          21.3942    14.3870    11.4201 H6            1 RES     
     217 H6          20.6204    13.0455    14.1332 H6            1 RES     
     218 H6          20.7666    12.2948    12.5512 H6            1 RES     
     219 H6          19.0031    13.6011    11.5661 H6            1 RES     
     220 H6          18.5351    12.4619    12.8443 H6            1 RES     
     221 H6          18.3255    14.2094    14.4857 H6            1 RES     
     222 H6          18.7599    15.4942    13.2856 H6            1 RES     
     223 H6          16.8647    14.8607    11.8316 H6            1 RES     
     224 H6          16.4221    13.4753    12.8863 H6            1 RES     
     225 H6          14.9162    15.4118    13.1560 H6            1 RES     
     226 H6          16.2836    16.4334    13.7377 H6            1 RES     
     227 H6          16.5600    14.8409    15.7038 H6            1 RES     
     228 H6          14.8879    15.4892    15.6092 H6            1 RES     
     229 H6          15.2285    13.8156    15.0358 H6            1 RES     
     230 C0          23.0589     9.9981     9.2153 C0            1 RES     
     231 C0          23.1445    10.6378     7.7560 C0            1 RES     
     232 C0          22.6390     9.5391     6.7612 C0            1 RES     
     233 C0          22.8806     9.8315     5.2665 C0            1 RES     
     234 C0          22.3472     8.7374     4.3248 C0            1 RES     
     235 C0          22.9499     7.3348     4.5205 C0            1 RES     
     236 C0          24.4855     7.2706     4.4710 C0            1 RES     
     237 C0          25.0790     7.8118     3.1584 C0            1 RES     
     238 C0          26.6146     7.7454     3.1270 C0            1 RES     
     239 C0          27.1513     6.3029     3.1101 C0            1 RES     
     240 C0          28.6782     6.2325     2.9526 C0            1 RES     
     241 C0          29.4354     6.8192     4.1441 C0            1 RES     
     242 C0          22.6004    12.0718     7.3503 C0            1 RES     
     243 C0          21.0804    12.3990     7.3258 C0            1 RES     
     244 C0          20.6551    13.2965     8.5018 C0            1 RES     
     245 C0          19.1749    13.6244     8.6076 C0            1 RES     
     246 C0          18.6109    14.6072     7.5911 C0            1 RES     
     247 C0          17.1571    14.9064     8.0106 C0            1 RES     
     248 C0          16.4717    15.9995     7.1887 C0            1 RES     
     249 C0          17.0900    17.3782     7.4256 C0            1 RES     
     250 H6          22.2376     9.2442     9.2260 H6            1 RES     
     251 H6          23.9473     9.3292     9.2717 H6            1 RES     
     252 H6          24.2393    10.7586     7.5863 H6            1 RES     
     253 H6          21.5504     9.3799     6.9187 H6            1 RES     
     254 H6          23.1623     8.5906     7.0091 H6            1 RES     
     255 H6          23.9657     9.9909     5.0942 H6            1 RES     
     256 H6          22.3382    10.7471     4.9609 H6            1 RES     
     257 H6          22.5364     9.0681     3.2813 H6            1 RES     
     258 H6          21.2438     8.6602     4.4419 H6            1 RES     
     259 H6          22.5313     6.6716     3.7321 H6            1 RES     
     260 H6          22.6194     6.9271     5.4996 H6            1 RES     
     261 H6          24.9089     7.8399     5.3259 H6            1 RES     
     262 H6          24.7638     6.2051     4.6027 H6            1 RES     
     263 H6          24.8032     8.8820     3.0541 H6            1 RES     
     264 H6          24.6612     7.2586     2.2896 H6            1 RES     
     265 H6          26.9541     8.2523     2.1976 H6            1 RES     
     266 H6          27.0155     8.3083     3.9966 H6            1 RES     
     267 H6          26.8654     5.7608     4.0349 H6            1 RES     
     268 H6          26.6988     5.7765     2.2415 H6            1 RES     
     269 H6          28.9854     6.7550     2.0207 H6            1 RES     
     270 H6          28.9648     5.1627     2.8598 H6            1 RES     
     271 H6          29.2316     7.9030     4.2577 H6            1 RES     
     272 H6          29.1507     6.2898     5.0783 H6            1 RES     
     273 H6          30.5266     6.6918     3.9833 H6            1 RES     
     274 H6          22.9464    12.2171     6.3105 H6            1 RES     
     275 H6          23.1784    12.9010     7.7998 H6            1 RES     
     276 H6          20.8822    13.0174     6.4227 H6            1 RES     
     277 H6          20.4767    11.4735     7.2338 H6            1 RES     
     278 H6          21.2520    14.2367     8.5039 H6            1 RES     
     279 H6          20.8388    12.7831     9.4390 H6            1 RES     
     280 H6          18.5804    12.6854     8.6335 H6            1 RES     
     281 H6          19.0707    14.1450     9.5738 H6            1 RES     
     282 H6          19.2273    15.5299     7.6338 H6            1 RES     
     283 H6          18.6489    14.1886     6.5638 H6            1 RES     
     284 H6          16.5709    13.9659     7.9161 H6            1 RES     
     285 H6          17.1201    15.2194     9.0795 H6            1 RES     
     286 H6          15.4118    16.0481     7.5222 H6            1 RES     
     287 H6          16.4935    15.7382     6.1122 H6            1 RES     
     288 H6          18.1412    17.4162     7.0771 H6            1 RES     
     289 H6          16.5107    18.1405     6.8654 H6            1 RES     
     290 H6          17.0551    17.6352     8.5071 H6            1 RES     
     291 C0          34.0209     6.5955    16.0988 C0            1 RES     
     292 C1          32.4792     6.6880    16.0847 C1            1 RES     
     293 C1          31.8982     5.7636    16.8929 C1            1 RES     
     294 S2          30.2253     5.7760    16.8302 S2            1 RES     
     295 C1          30.2119     7.0138    15.6646 C1            1 RES     
     296 C1          31.5189     7.3945    15.3415 C1            1 RES     
     297 C1          32.9092     4.9715    17.4786 C1            1 RES     
     298 C1          34.1188     5.3548    16.9877 C1            1 RES     
     299 C1          35.1486     4.5235    17.4119 C1            1 RES     
     300 C1          34.6570     3.5255    18.2701 C1            1 RES     
     301 S2          32.9781     3.6529    18.4901 S2            1 RES     
     302 H3          31.7208     8.1108    14.5678 H3            1 RES     
     303 H3          36.1853     4.6296    17.1155 H3            1 RES     
     304 N4          36.3306     1.2351    20.7203 N4            1 RES     
     305 C1          35.6491     2.3032    20.2115 C1            1 RES     
     306 C1          35.4220     2.4164    18.8290 C1            1 RES     
     307 C1          35.8920     1.3972    17.9989 C1            1 RES     
     308 N4          35.6904     1.3552    16.6569 N4            1 RES     
     309 S2          36.3992    -0.0786    16.2405 S2            1 RES     
     310 N4          36.9654    -0.6716    17.6779 N4            1 RES     
     311 C1          36.5797     0.2888    18.5539 C1            1 RES     
     312 C1          36.8036     0.2333    19.9271 C1            1 RES     
     313 H5          35.2887     3.0752    20.8859 H5            1 RES     
     314 C0          34.8602     7.7460    16.7580 C0            1 RES     
     315 C0          35.0407     8.1365    18.2736 C0            1 RES     
     316 C0          35.8965     9.4516    18.2577 C0            1 RES     
     317 C0          36.2968    10.0336    19.6191 C0            1 RES     
     318 C0          37.0919    11.3535    19.4819 C0            1 RES     
     319 C0          38.4471    11.2493    18.7482 C0            1 RES     
     320 C0          39.4208    10.2096    19.3303 C0            1 RES     
     321 C0          39.7444    10.4515    20.8154 C0            1 RES     
     322 C0          40.6717     9.3810    21.4084 C0            1 RES     
     323 C0          42.0895     9.4107    20.8130 C0            1 RES     
     324 C0          43.0401     8.4131    21.4938 C0            1 RES     
     325 C0          42.6472     6.9534    21.2634 C0            1 RES     
     326 C0          33.7827     8.2658    19.1933 C0            1 RES     
     327 C0          32.7344     9.3825    18.8987 C0            1 RES     
     328 C0          31.3731     8.7293    18.6415 C0            1 RES     
     329 C0          30.2745     9.5844    18.0166 C0            1 RES     
     330 C0          29.5288    10.5210    18.9559 C0            1 RES     
     331 C0          28.4425    11.2449    18.1330 C0            1 RES     
     332 C0          27.4746    12.0852    18.9692 C0            1 RES     
     333 C0          26.5718    11.2224    19.8534 C0            1 RES     
     334 H6          34.5436     8.6466    16.2971 H6            1 RES     
     335 H6          35.9034     7.5494    16.4221 H6            1 RES     
     336 H6          35.6463     7.3275    18.7398 H6            1 RES     
     337 H6          35.3390    10.2451    17.7136 H6            1 RES     
     338 H6          36.8264     9.2434    17.6864 H6            1 RES     
     339 H6          36.8764     9.2859    20.1978 H6            1 RES     
     340 H6          35.3815    10.2845    20.1922 H6            1 RES     
     341 H6          37.2660    11.7586    20.5002 H6            1 RES     
     342 H6          36.4681    12.1037    18.9473 H6            1 RES     
     343 H6          38.9305    12.2514    18.7732 H6            1 RES     
     344 H6          38.2758    11.0023    17.6786 H6            1 RES     
     345 H6          38.9886     9.1941    19.2075 H6            1 RES     
     346 H6          40.3517    10.2562    18.7279 H6            1 RES     
     347 H6          38.8029    10.4027    21.3995 H6            1 RES     
     348 H6          40.1897    11.4611    20.9538 H6            1 RES     
     349 H6          40.7511     9.5740    22.5005 H6            1 RES     
     350 H6          40.2005     8.3861    21.2643 H6            1 RES     
     351 H6          42.0680     9.1980    19.7241 H6            1 RES     
     352 H6          42.5057    10.4307    20.9632 H6            1 RES     
     353 H6          43.0849     8.6197    22.5854 H6            1 RES     
     354 H6          44.0574     8.5628    21.0721 H6            1 RES     
     355 H6          41.6586     6.7252    21.7103 H6            1 RES     
     356 H6          42.6200     6.7312    20.1754 H6            1 RES     
     357 H6          43.3981     6.2908    21.7425 H6            1 RES     
     358 H6          34.1417     8.4307    20.2317 H6            1 RES     
     359 H6          33.2994     7.2678    19.2628 H6            1 RES     
     360 H6          32.6319    10.0678    19.7698 H6            1 RES     
     361 H6          33.0532     9.9828    18.0225 H6            1 RES     
     362 H6          31.0006     8.1693    19.5250 H6            1 RES     
     363 H6          31.5855     8.0143    17.8754 H6            1 RES     
     364 H6          30.6872    10.1294    17.1641 H6            1 RES     
     365 H6          29.5155     8.8748    17.6154 H6            1 RES     
     366 H6          29.0714     9.8936    19.7500 H6            1 RES     
     367 H6          30.2148    11.2593    19.4223 H6            1 RES     
     368 H6          28.9530    11.9091    17.3992 H6            1 RES     
     369 H6          27.8371    10.5098    17.5552 H6            1 RES     
     370 H6          26.8160    12.6412    18.2662 H6            1 RES     
     371 H6          28.0349    12.8216    19.5829 H6            1 RES     
     372 H6          27.1573    10.6648    20.6108 H6            1 RES     
     373 H6          25.8453    11.8702    20.3847 H6            1 RES     
     374 H6          26.0036    10.4979    19.2282 H6            1 RES     
     375 C0          34.4320     6.3439    14.5944 C0            1 RES     
     376 C0          35.2227     7.3697    13.6623 C0            1 RES     
     377 C0          34.9184     6.9497    12.1847 C0            1 RES     
     378 C0          35.7853     7.6306    11.1064 C0            1 RES     
     379 C0          35.4362     7.2065     9.6689 C0            1 RES     
     380 C0          35.5868     5.7064     9.3592 C0            1 RES     
     381 C0          36.9628     5.1054     9.6909 C0            1 RES     
     382 C0          38.1276     5.8094     8.9727 C0            1 RES     
     383 C0          39.4960     5.2003     9.3187 C0            1 RES     
     384 C0          39.6623     3.7634     8.7925 C0            1 RES     
     385 C0          41.0716     3.1976     9.0270 C0            1 RES     
     386 C0          41.4100     3.0151    10.5066 C0            1 RES     
     387 C0          35.2139     8.9481    13.8226 C0            1 RES     
     388 C0          33.9391     9.7960    13.5510 C0            1 RES     
     389 C0          33.2968    10.3206    14.8478 C0            1 RES     
     390 C0          32.0065    11.1095    14.6980 C0            1 RES     
     391 C0          32.1196    12.5166    14.1282 C0            1 RES     
     392 C0          30.7235    13.1626    14.2398 C0            1 RES     
     393 C0          30.6762    14.6422    13.8540 C0            1 RES     
     394 C0          31.4408    15.5247    14.8418 C0            1 RES     
     395 H6          33.5276     5.9899    14.0469 H6            1 RES     
     396 H6          35.0548     5.4211    14.5729 H6            1 RES     
     397 H6          36.2934     7.1317    13.8596 H6            1 RES     
     398 H6          33.8494     7.1566    11.9614 H6            1 RES     
     399 H6          35.0782     5.8530    12.1042 H6            1 RES     
     400 H6          36.8569     7.4304    11.3164 H6            1 RES     
     401 H6          35.6239     8.7259    11.1179 H6            1 RES     
     402 H6          36.0879     7.7837     8.9787 H6            1 RES     
     403 H6          34.3882     7.5035     9.4443 H6            1 RES     
     404 H6          35.3755     5.5594     8.2774 H6            1 RES     
     405 H6          34.8172     5.1368     9.9226 H6            1 RES     
     406 H6          37.1315     5.1465    10.7882 H6            1 RES     
     407 H6          36.9235     4.0375     9.3941 H6            1 RES     
     408 H6          38.1594     6.8710     9.2955 H6            1 RES     
     409 H6          37.9729     5.7850     7.8723 H6            1 RES     
     410 H6          40.2762     5.8351     8.8449 H6            1 RES     
     411 H6          39.6375     5.2391    10.4197 H6            1 RES     
     412 H6          38.9240     3.0801     9.2604 H6            1 RES     
     413 H6          39.4824     3.7748     7.6953 H6            1 RES     
     414 H6          41.8272     3.8587     8.5496 H6            1 RES     
     415 H6          41.1268     2.2006     8.5391 H6            1 RES     
     416 H6          41.4236     3.9867    11.0403 H6            1 RES     
     417 H6          40.6720     2.3391    10.9887 H6            1 RES     
     418 H6          42.4190     2.5609    10.5982 H6            1 RES     
     419 H6          35.9630     9.3063    13.0929 H6            1 RES     
     420 H6          35.7373     9.2972    14.7325 H6            1 RES     
     421 H6          34.2535    10.7151    13.0090 H6            1 RES     
     422 H6          33.2312     9.2495    12.8954 H6            1 RES     
     423 H6          34.0372    10.9133    15.4316 H6            1 RES     
     424 H6          32.9794     9.4857    15.4625 H6            1 RES     
     425 H6          31.2576    10.5072    14.1392 H6            1 RES     
     426 H6          31.6498    11.2633    15.7298 H6            1 RES     
     427 H6          32.8576    13.0730    14.7438 H6            1 RES     
     428 H6          32.4639    12.4962    13.0733 H6            1 RES     
     429 H6          30.0289    12.5976    13.5799 H6            1 RES     
     430 H6          30.3404    13.0770    15.2828 H6            1 RES     
     431 H6          29.6100    14.9572    13.8821 H6            1 RES     
     432 H6          31.0602    14.7807    12.8239 H6            1 RES     
     433 H6          32.5244    15.2930    14.8377 H6            1 RES     
     434 H6          31.3123    16.5891    14.5572 H6            1 RES     
     435 H6          31.0422    15.3856    15.8708 H6            1 RES     
     436 C0          40.7633    -2.9915    21.7979 C0            1 RES     
     437 C1          39.4129    -2.3419    21.4233 C1            1 RES     
     438 C1          38.3723    -3.2070    21.5415 C1            1 RES     
     439 S2          36.9063    -2.5618    21.0548 S2            1 RES     
     440 C1          37.6259    -1.0846    20.6178 C1            1 RES     
     441 C1          39.0039    -1.1228    20.8575 C1            1 RES     
     442 C1          38.8696    -4.4642    21.9476 C1            1 RES     
     443 C1          40.2270    -4.4065    22.0200 C1            1 RES     
     444 C1          40.7957    -5.6485    22.2756 C1            1 RES     
     445 C1          39.7989    -6.6273    22.4266 C1            1 RES     
     446 S2          38.2420    -5.9782    22.2313 S2            1 RES     
     447 H3          39.6463    -0.3105    20.5751 H3            1 RES     
     448 H3          41.8609    -5.8342    22.3430 H3            1 RES     
     449 N4          39.8242   -10.0661    23.9179 N4            1 RES     
     450 C1          39.6521    -8.7179    23.7887 C1            1 RES     
     451 C1          40.0169    -8.0589    22.6019 C1            1 RES     
     452 C1          40.5364    -8.8246    21.5566 C1            1 RES     
     453 N4          40.8736    -8.3228    20.3408 N4            1 RES     
     454 S2          41.3522    -9.6772    19.5232 S2            1 RES     
     455 N4          41.1622   -10.8939    20.6286 N4            1 RES     
     456 C1          40.6869   -10.2258    21.7086 C1            1 RES     
     457 C1          40.3357   -10.8306    22.9126 C1            1 RES     
     458 H5          39.2368    -8.1522    24.6182 H5            1 RES     
     459 C0          41.5088    -2.5330    23.1005 C0            1 RES     
     460 C0          41.1617    -2.7859    24.6163 C0            1 RES     
     461 C0          42.2233    -1.9578    25.4223 C0            1 RES     
     462 C0          42.1755    -2.0724    26.9510 C0            1 RES     
     463 C0          43.2314    -1.1762    27.6398 C0            1 RES     
     464 C0          44.7061    -1.5089    27.3228 C0            1 RES     
     465 C0          45.1166    -2.9651    27.6041 C0            1 RES     
     466 C0          44.8764    -3.3881    29.0642 C0            1 RES     
     467 C0          45.2343    -4.8576    29.3286 C0            1 RES     
     468 C0          46.7402    -5.1456    29.2065 C0            1 RES     
     469 C0          47.1007    -6.5910    29.5848 C0            1 RES     
     470 C0          46.5169    -7.6283    28.6250 C0            1 RES     
     471 C0          39.7065    -2.5313    25.1287 C0            1 RES     
     472 C0          39.1336    -1.0807    25.1077 C0            1 RES     
     473 C0          37.8745    -1.0573    24.2359 C0            1 RES     
     474 C0          37.3284     0.2999    23.8019 C0            1 RES     
     475 C0          36.5017     1.0574    24.8306 C0            1 RES     
     476 C0          36.0152     2.3652    24.1717 C0            1 RES     
     477 C0          35.0092     3.1566    25.0107 C0            1 RES     
     478 C0          33.6651     2.4363    25.1372 C0            1 RES     
     479 H6          41.6065    -1.4797    23.0320 H6            1 RES     
     480 H6          42.5283    -2.9689    22.9990 H6            1 RES     
     481 H6          41.3402    -3.8678    24.8066 H6            1 RES     
     482 H6          42.1149    -0.8800    25.1713 H6            1 RES     
     483 H6          43.2315    -2.2809    25.0851 H6            1 RES     
     484 H6          42.3001    -3.1308    27.2580 H6            1 RES     
     485 H6          41.1890    -1.7185    27.3128 H6            1 RES     
     486 H6          43.0771    -1.2421    28.7367 H6            1 RES     
     487 H6          43.0506    -0.1147    27.3599 H6            1 RES     
     488 H6          45.3499    -0.8290    27.9243 H6            1 RES     
     489 H6          44.9181    -1.2897    26.2545 H6            1 RES     
     490 H6          44.5539    -3.6415    26.9266 H6            1 RES     
     491 H6          46.1944    -3.0576    27.3559 H6            1 RES     
     492 H6          43.7959    -3.2874    29.2930 H6            1 RES     
     493 H6          45.4433    -2.7270    29.7558 H6            1 RES     
     494 H6          44.9194    -5.0976    30.3676 H6            1 RES     
     495 H6          44.6498    -5.4947    28.6320 H6            1 RES     
     496 H6          47.1012    -4.9449    28.1765 H6            1 RES     
     497 H6          47.2789    -4.4688    29.9052 H6            1 RES     
     498 H6          46.7582    -6.8064    30.6205 H6            1 RES     
     499 H6          48.2075    -6.6886    29.5601 H6            1 RES     
     500 H6          45.4085    -7.6178    28.6433 H6            1 RES     
     501 H6          46.8704    -7.4341    27.5900 H6            1 RES     
     502 H6          46.8525    -8.6414    28.9306 H6            1 RES     
     503 H6          39.6561    -2.8794    26.1826 H6            1 RES     
     504 H6          39.0266    -3.2404    24.6097 H6            1 RES     
     505 H6          38.8521    -0.7524    26.1334 H6            1 RES     
     506 H6          39.8950    -0.3759    24.7162 H6            1 RES     
     507 H6          37.0712    -1.7101    24.6379 H6            1 RES     
     508 H6          38.2064    -1.4879    23.3151 H6            1 RES     
     509 H6          38.1521     0.9143    23.4301 H6            1 RES     
     510 H6          36.6511     0.1037    22.9398 H6            1 RES     
     511 H6          35.6428     0.4084    25.1037 H6            1 RES     
     512 H6          37.0946     1.2826    25.7422 H6            1 RES     
     513 H6          36.9060     3.0057    23.9807 H6            1 RES     
     514 H6          35.5386     2.1518    23.1879 H6            1 RES     
     515 H6          34.8203     4.1212    24.4903 H6            1 RES     
     516 H6          35.4317     3.3753    26.0139 H6            1 RES     
     517 H6          33.7671     1.4783    25.6841 H6            1 RES     
     518 H6          32.9516     3.0783    25.6925 H6            1 RES     
     519 H6          33.2427     2.2348    24.1274 H6            1 RES     
     520 C0          41.6648    -2.8392    20.5097 C0            1 RES     
     521 C0          42.9637    -1.9206    20.3868 C0            1 RES     
     522 C0          43.1787    -1.6610    18.8575 C0            1 RES     
     523 C0          44.5266    -1.0176    18.4739 C0            1 RES     
     524 C0          44.6850    -0.7590    16.9652 C0            1 RES     
     525 C0          44.6086    -2.0030    16.0620 C0            1 RES     
     526 C0          45.5738    -3.1409    16.4339 C0            1 RES     
     527 C0          47.0514    -2.7112    16.4458 C0            1 RES     
     528 C0          48.0023    -3.8583    16.8241 C0            1 RES     
     529 C0          48.0388    -4.9785    15.7692 C0            1 RES     
     530 C0          49.0795    -6.0647    16.0828 C0            1 RES     
     531 C0          48.7606    -6.8579    17.3501 C0            1 RES     
     532 C0          43.2426    -0.6093    21.2352 C0            1 RES     
     533 C0          42.3990     0.6842    21.0528 C0            1 RES     
     534 C0          41.4330     0.9242    22.2270 C0            1 RES     
     535 C0          40.5147     2.1303    22.1177 C0            1 RES     
     536 C0          41.1509     3.5013    22.2983 C0            1 RES     
     537 C0          40.0040     4.5323    22.3194 C0            1 RES     
     538 C0          40.4410     5.9612    22.6476 C0            1 RES     
     539 C0          40.9314     6.1018    24.0894 C0            1 RES     
     540 H6          40.9938    -2.6245    19.6456 H6            1 RES     
     541 H6          42.0248    -3.8572    20.2372 H6            1 RES     
     542 H6          43.7894    -2.5867    20.7282 H6            1 RES     
     543 H6          42.3579    -1.0135    18.4803 H6            1 RES     
     544 H6          43.1099    -2.6391    18.3346 H6            1 RES     
     545 H6          45.3565    -1.6557    18.8434 H6            1 RES     
     546 H6          44.6206    -0.0162    18.9369 H6            1 RES     
     547 H6          45.6655    -0.2605    16.8090 H6            1 RES     
     548 H6          43.9034    -0.0408    16.6331 H6            1 RES     
     549 H6          44.8119    -1.6784    15.0180 H6            1 RES     
     550 H6          43.5743    -2.4078    16.0827 H6            1 RES     
     551 H6          45.3029    -3.5466    17.4320 H6            1 RES     
     552 H6          45.4185    -3.9464    15.6874 H6            1 RES     
     553 H6          47.1883    -1.9174    17.2095 H6            1 RES     
     554 H6          47.3397    -2.2951    15.4562 H6            1 RES     
     555 H6          49.0253    -3.4319    16.9122 H6            1 RES     
     556 H6          47.7051    -4.2573    17.8172 H6            1 RES     
     557 H6          47.0447    -5.4602    15.6652 H6            1 RES     
     558 H6          48.3113    -4.5235    14.7919 H6            1 RES     
     559 H6          50.0879    -5.6054    16.1733 H6            1 RES     
     560 H6          49.0994    -6.7775    15.2304 H6            1 RES     
     561 H6          48.7786    -6.2081    18.2482 H6            1 RES     
     562 H6          47.7629    -7.3381    17.2616 H6            1 RES     
     563 H6          49.5249    -7.6516    17.4875 H6            1 RES     
     564 H6          44.2771    -0.3219    20.9718 H6            1 RES     
     565 H6          43.4301    -0.8141    22.3060 H6            1 RES     
     566 H6          43.0960     1.5503    21.0892 H6            1 RES     
     567 H6          41.9032     0.6981    20.0611 H6            1 RES     
     568 H6          41.9962     0.9632    23.1869 H6            1 RES     
     569 H6          40.7234     0.1068    22.2899 H6            1 RES     
     570 H6          39.9319     2.0775    21.1725 H6            1 RES     
     571 H6          39.8255     2.0371    22.9731 H6            1 RES     
     572 H6          41.6915     3.4988    23.2684 H6            1 RES     
     573 H6          41.8678     3.7224    21.4802 H6            1 RES     
     574 H6          39.5176     4.5268    21.3191 H6            1 RES     
     575 H6          39.2337     4.2381    23.0691 H6            1 RES     
     576 H6          39.5478     6.6141    22.5343 H6            1 RES     
     577 H6          41.2187     6.2962    21.9329 H6            1 RES     
     578 H6          41.8490     5.5061    24.2654 H6            1 RES     
     579 H6          41.1643     7.1668    24.2947 H6            1 RES     
     580 H6          40.1411     5.7719    24.7989 H6            1 RES     
     581 C0          42.4220   -15.7139    24.0871 C0            1 RES     
     582 C1          41.5075   -14.5285    23.7075 C1            1 RES     
     583 C1          40.3405   -14.9354    23.1438 C1            1 RES     
     584 S2          39.3657   -13.6726    22.6363 S2            1 RES     
     585 C1          40.5068   -12.5091    23.1209 C1            1 RES     
     586 C1          41.6344   -13.1299    23.6694 C1            1 RES     
     587 C1          40.3465   -16.3440    23.0517 C1            1 RES     
     588 C1          41.5426   -16.8165    23.4955 C1            1 RES     
     589 C1          41.6749   -18.1861    23.3006 C1            1 RES     
     590 C1          40.5090   -18.7187    22.7251 C1            1 RES     
     591 S2          39.3395   -17.5201    22.4438 S2            1 RES     
     592 H3          42.4987   -12.5659    23.9647 H3            1 RES     
     593 H3          42.5583   -18.7601    23.5536 H3            1 RES     
     594 N4          39.1845   -22.2142    22.4470 N4            1 RES     
     595 C1          39.3803   -20.9418    22.9017 C1            1 RES     
     596 C1          40.3176   -20.0958    22.2840 C1            1 RES     
     597 C1          41.0219   -20.5861    21.1829 C1            1 RES     
     598 N4          41.9111   -19.8559    20.4621 N4            1 RES     
     599 S2          42.3591   -20.9185    19.2780 S2            1 RES     
     600 N4          41.4862   -22.2821    19.6199 N4            1 RES     
     601 C1          40.7862   -21.9043    20.7180 C1            1 RES     
     602 C1          39.8662   -22.7144    21.3785 C1            1 RES     
     603 H5          38.8094   -20.5877    23.7557 H5            1 RES     
     604 C0          42.6781   -16.0413    25.6004 C0            1 RES     
     605 C0          41.7175   -16.6567    26.6869 C0            1 RES     
     606 C0          42.5324   -16.6090    28.0271 C0            1 RES     
     607 C0          41.8644   -17.2190    29.2656 C0            1 RES     
     608 C0          42.7354   -17.0697    30.5352 C0            1 RES     
     609 C0          44.1026   -17.7879    30.5014 C0            1 RES     
     610 C0          44.0360   -19.2934    30.1900 C0            1 RES     
     611 C0          43.1549   -20.0757    31.1801 C0            1 RES     
     612 C0          43.0451   -21.5677    30.8346 C0            1 RES     
     613 C0          44.3736   -22.3259    30.9953 C0            1 RES     
     614 C0          44.2268   -23.8374    30.7584 C0            1 RES     
     615 C0          43.8524   -24.1878    29.3178 C0            1 RES     
     616 C0          40.2737   -16.0808    26.8571 C0            1 RES     
     617 C0          40.0919   -14.6106    27.3451 C0            1 RES     
     618 C0          39.3151   -13.8276    26.2823 C0            1 RES     
     619 C0          39.2986   -12.3050    26.3832 C0            1 RES     
     620 C0          38.3248   -11.7035    27.3858 C0            1 RES     
     621 C0          38.4387   -10.1677    27.2882 C0            1 RES     
     622 C0          37.3868    -9.4056    28.0974 C0            1 RES     
     623 C0          35.9777    -9.5792    27.5267 C0            1 RES     
     624 H6          43.0256   -15.1435    26.0442 H6            1 RES     
     625 H6          43.5315   -16.7563    25.5841 H6            1 RES     
     626 H6          41.5624   -17.7224    26.4064 H6            1 RES     
     627 H6          42.7729   -15.5514    28.2723 H6            1 RES     
     628 H6          43.4931   -17.1408    27.8580 H6            1 RES     
     629 H6          41.6208   -18.2850    29.0812 H6            1 RES     
     630 H6          40.9202   -16.6770    29.4753 H6            1 RES     
     631 H6          42.1527   -17.4494    31.3998 H6            1 RES     
     632 H6          42.9190   -15.9897    30.7294 H6            1 RES     
     633 H6          44.5919   -17.6444    31.4905 H6            1 RES     
     634 H6          44.7596   -17.3068    29.7455 H6            1 RES     
     635 H6          43.6497   -19.4373    29.1589 H6            1 RES     
     636 H6          45.0751   -19.6823    30.2194 H6            1 RES     
     637 H6          42.1229   -19.6719    31.1372 H6            1 RES     
     638 H6          43.5361   -19.9514    32.2174 H6            1 RES     
     639 H6          42.3032   -22.0188    31.5290 H6            1 RES     
     640 H6          42.6556   -21.6630    29.7993 H6            1 RES     
     641 H6          45.1445   -21.9287    30.3029 H6            1 RES     
     642 H6          44.7303   -22.1802    32.0383 H6            1 RES     
     643 H6          43.4669   -24.2560    31.4538 H6            1 RES     
     644 H6          45.2029   -24.3186    30.9835 H6            1 RES     
     645 H6          42.8580   -23.7789    29.0474 H6            1 RES     
     646 H6          44.6171   -23.7916    28.6163 H6            1 RES     
     647 H6          43.8076   -25.2915    29.2080 H6            1 RES     
     648 H6          39.7380   -16.7274    27.5846 H6            1 RES     
     649 H6          39.7133   -16.2648    25.9155 H6            1 RES     
     650 H6          39.5108   -14.5784    28.2941 H6            1 RES     
     651 H6          41.0814   -14.1453    27.5300 H6            1 RES     
     652 H6          38.2957   -14.2362    26.1189 H6            1 RES     
     653 H6          39.8773   -14.0028    25.3897 H6            1 RES     
     654 H6          40.3159   -11.9476    26.5603 H6            1 RES     
     655 H6          38.9887   -11.9283    25.3819 H6            1 RES     
     656 H6          37.3071   -12.0439    27.0996 H6            1 RES     
     657 H6          38.5463   -12.0414    28.4202 H6            1 RES     
     658 H6          39.4508    -9.8748    27.6489 H6            1 RES     
     659 H6          38.3520    -9.8373    26.2281 H6            1 RES     
     660 H6          37.6361    -8.3231    28.0407 H6            1 RES     
     661 H6          37.4188    -9.7184    29.1623 H6            1 RES     
     662 H6          35.6419   -10.6332    27.5862 H6            1 RES     
     663 H6          35.2651    -8.9551    28.1033 H6            1 RES     
     664 H6          35.9521    -9.2493    26.4640 H6            1 RES     
     665 C0          43.7661   -15.4672    23.2945 C0            1 RES     
     666 C0          45.1774   -15.1069    23.9461 C0            1 RES     
     667 C0          46.0269   -14.4327    22.8165 C0            1 RES     
     668 C0          47.5233   -14.2381    23.1342 C0            1 RES     
     669 C0          48.3140   -13.5511    22.0068 C0            1 RES     
     670 C0          48.3245   -14.2855    20.6542 C0            1 RES     
     671 C0          48.7881   -15.7506    20.7095 C0            1 RES     
     672 C0          50.1978   -15.9248    21.3017 C0            1 RES     
     673 C0          50.6440   -17.3950    21.3547 C0            1 RES     
     674 C0          50.8424   -18.0113    19.9583 C0            1 RES     
     675 C0          51.4078   -19.4393    20.0073 C0            1 RES     
     676 C0          50.4501   -20.4459    20.6449 C0            1 RES     
     677 C0          45.3840   -14.3697    25.3356 C0            1 RES     
     678 C0          44.9890   -12.8802    25.5441 C0            1 RES     
     679 C0          43.7191   -12.7249    26.4000 C0            1 RES     
     680 C0          43.2094   -11.3089    26.6117 C0            1 RES     
     681 C0          44.0103   -10.4201    27.5528 C0            1 RES     
     682 C0          43.2066    -9.1165    27.7363 C0            1 RES     
     683 C0          43.7845    -8.1558    28.7771 C0            1 RES     
     684 C0          43.6877    -8.7125    30.1983 C0            1 RES     
     685 H6          43.5537   -14.7370    22.4791 H6            1 RES     
     686 H6          43.9688   -16.3842    22.6962 H6            1 RES     
     687 H6          45.6330   -16.1029    24.1524 H6            1 RES     
     688 H6          45.5856   -13.4422    22.5726 H6            1 RES     
     689 H6          45.9540   -15.0717    21.9103 H6            1 RES     
     690 H6          47.9778   -15.2212    23.3782 H6            1 RES     
     691 H6          47.6474   -13.5676    24.0066 H6            1 RES     
     692 H6          49.3610   -13.4257    22.3565 H6            1 RES     
     693 H6          47.9056   -12.5295    21.8437 H6            1 RES     
     694 H6          48.9876   -13.7186    19.9645 H6            1 RES     
     695 H6          47.3034   -14.2634    20.2173 H6            1 RES     
     696 H6          48.0648   -16.3469    21.3057 H6            1 RES     
     697 H6          48.7639   -16.1314    19.6682 H6            1 RES     
     698 H6          50.1961   -15.5534    22.3478 H6            1 RES     
     699 H6          50.9356   -15.3289    20.7222 H6            1 RES     
     700 H6          51.6172   -17.4318    21.8910 H6            1 RES     
     701 H6          49.9007   -17.9742    21.9427 H6            1 RES     
     702 H6          49.8891   -18.0272    19.3910 H6            1 RES     
     703 H6          51.5699   -17.3801    19.4027 H6            1 RES     
     704 H6          52.3742   -19.4432    20.5567 H6            1 RES     
     705 H6          51.6021   -19.7676    18.9635 H6            1 RES     
     706 H6          50.2577   -20.2016    21.7091 H6            1 RES     
     707 H6          49.4877   -20.4646    20.0905 H6            1 RES     
     708 H6          50.9026   -21.4590    20.6034 H6            1 RES     
     709 H6          46.4745   -14.4094    25.5126 H6            1 RES     
     710 H6          45.0859   -14.9856    26.2049 H6            1 RES     
     711 H6          45.7889   -12.4000    26.1498 H6            1 RES     
     712 H6          44.9386   -12.3437    24.5750 H6            1 RES     
     713 H6          43.8539   -13.2295    27.3837 H6            1 RES     
     714 H6          42.8799   -13.1929    25.8977 H6            1 RES     
     715 H6          43.0484   -10.8141    25.6292 H6            1 RES     
     716 H6          42.2378   -11.4327    27.1178 H6            1 RES     
     717 H6          44.1117   -10.9557    28.5203 H6            1 RES     
     718 H6          45.0202   -10.2089    27.1436 H6            1 RES     
     719 H6          43.1636    -8.5972    26.7536 H6            1 RES     
     720 H6          42.1596    -9.3477    28.0401 H6            1 RES     
     721 H6          43.1763    -7.2253    28.7416 H6            1 RES     
     722 H6          44.8334    -7.9041    28.5236 H6            1 RES     
     723 H6          44.3059    -9.6241    30.3195 H6            1 RES     
     724 H6          44.0510    -7.9488    30.9162 H6            1 RES     
     725 H6          42.6307    -8.9532    30.4465 H6            1 RES     
     726 C0          40.1860   -28.1032    20.7177 C0            1 RES     
     727 C1          39.7811   -26.6129    20.6904 C1            1 RES     
     728 C1          38.8703   -26.3420    19.7197 C1            1 RES     
     729 S2          38.4790   -24.7186    19.6027 S2            1 RES     
     730 C1          39.5653   -24.2991    20.8415 C1            1 RES     
     731 C1          40.2192   -25.4381    21.3240 C1            1 RES     
     732 C1          38.5998   -27.5292    19.0055 C1            1 RES     
     733 C1          39.3888   -28.5290    19.4838 C1            1 RES     
     734 C1          39.2798   -29.6932    18.7328 C1            1 RES     
     735 C1          38.3468   -29.5271    17.6954 C1            1 RES     
     736 S2          37.6788   -27.9660    17.6911 S2            1 RES     
     737 H3          40.9999   -25.3696    22.0577 H3            1 RES     
     738 H3          39.8420   -30.6001    18.9205 H3            1 RES     
     739 N4          36.4991   -31.9654    15.5295 N4            1 RES     
     740 C1          36.7774   -31.0951    16.5441 C1            1 RES     
     741 C1          38.0439   -30.4941    16.6462 C1            1 RES     
     742 C1          38.9961   -30.7950    15.6706 C1            1 RES     
     743 N4          40.2345   -30.2408    15.6199 N4            1 RES     
     744 S2          40.8637   -30.9134    14.2475 S2            1 RES     
     745 N4          39.6481   -31.8898    13.6930 N4            1 RES     
     746 C1          38.6760   -31.6866    14.6162 C1            1 RES     
     747 C1          37.4161   -32.2778    14.5713 C1            1 RES     
     748 H5          36.0111   -30.8754    17.2824 H5            1 RES     
     749 C0          39.7482   -29.0031    21.9265 C0            1 RES     
     750 C0          38.3280   -29.5584    22.3222 C0            1 RES     
     751 C0          38.5402   -30.2792    23.6998 C0            1 RES     
     752 C0          37.3228   -30.9896    24.3043 C0            1 RES     
     753 C0          37.6353   -31.6188    25.6825 C0            1 RES     
     754 C0          38.7099   -32.7283    25.6874 C0            1 RES     
     755 C0          38.4391   -33.8968    24.7234 C0            1 RES     
     756 C0          37.0907   -34.5921    24.9823 C0            1 RES     
     757 C0          36.7977   -35.7213    23.9839 C0            1 RES     
     758 C0          37.7526   -36.9185    24.1264 C0            1 RES     
     759 C0          37.3796   -38.0885    23.2022 C0            1 RES     
     760 C0          37.5330   -37.7560    21.7175 C0            1 RES     
     761 C0          37.0999   -28.5908    22.3490 C0            1 RES     
     762 C0          37.0719   -27.4230    23.3825 C0            1 RES     
     763 C0          36.9689   -26.0946    22.6270 C0            1 RES     
     764 C0          37.2519   -24.8081    23.3975 C0            1 RES     
     765 C0          36.1224   -24.2784    24.2687 C0            1 RES     
     766 C0          36.6027   -22.9597    24.9103 C0            1 RES     
     767 C0          35.5149   -22.1957    25.6688 C0            1 RES     
     768 C0          34.4425   -21.6321    24.7342 C0            1 RES     
     769 H6          40.0832   -28.5083    22.8022 H6            1 RES     
     770 H6          40.3581   -29.9277    21.8131 H6            1 RES     
     771 H6          38.0635   -30.3253    21.5603 H6            1 RES     
     772 H6          38.8930   -29.5385    24.4504 H6            1 RES     
     773 H6          39.3464   -31.0321    23.5672 H6            1 RES     
     774 H6          36.9414   -31.7575    23.6009 H6            1 RES     
     775 H6          36.5177   -30.2480    24.4806 H6            1 RES     
     776 H6          36.6917   -32.0322    26.0948 H6            1 RES     
     777 H6          37.9622   -30.8202    26.3848 H6            1 RES     
     778 H6          38.7904   -33.1256    26.7238 H6            1 RES     
     779 H6          39.6996   -32.2921    25.4332 H6            1 RES     
     780 H6          38.4669   -33.5231    23.6781 H6            1 RES     
     781 H6          39.2690   -34.6236    24.8451 H6            1 RES     
     782 H6          36.2757   -33.8504    24.8576 H6            1 RES     
     783 H6          37.0516   -34.9831    26.0226 H6            1 RES     
     784 H6          35.7630   -36.0793    24.1771 H6            1 RES     
     785 H6          36.8351   -35.3030    22.9562 H6            1 RES     
     786 H6          38.8005   -36.6185    23.9182 H6            1 RES     
     787 H6          37.6941   -37.2840    25.1749 H6            1 RES     
     788 H6          36.3356   -38.4123    23.4062 H6            1 RES     
     789 H6          38.0561   -38.9397    23.4324 H6            1 RES     
     790 H6          36.8420   -36.9450    21.4112 H6            1 RES     
     791 H6          38.5787   -37.4513    21.4994 H6            1 RES     
     792 H6          37.2916   -38.6551    21.1128 H6            1 RES     
     793 H6          36.1930   -29.2047    22.5361 H6            1 RES     
     794 H6          36.9284   -28.2189    21.3162 H6            1 RES     
     795 H6          36.1879   -27.5104    24.0534 H6            1 RES     
     796 H6          37.9857   -27.4474    24.0101 H6            1 RES     
     797 H6          36.0324   -26.0175    22.0354 H6            1 RES     
     798 H6          37.7822   -26.1432    21.9344 H6            1 RES     
     799 H6          38.1698   -24.9333    23.9771 H6            1 RES     
     800 H6          37.4516   -24.0229    22.6332 H6            1 RES     
     801 H6          35.2508   -24.1006    23.6038 H6            1 RES     
     802 H6          35.8395   -25.0090    25.0557 H6            1 RES     
     803 H6          37.4296   -23.2021    25.6157 H6            1 RES     
     804 H6          37.0145   -22.2760    24.1334 H6            1 RES     
     805 H6          35.9996   -21.3324    26.1756 H6            1 RES     
     806 H6          35.0564   -22.8458    26.4433 H6            1 RES     
     807 H6          33.8859   -22.4402    24.2199 H6            1 RES     
     808 H6          33.7184   -21.0314    25.3210 H6            1 RES     
     809 H6          34.9097   -20.9704    23.9709 H6            1 RES     
     810 C0          41.7515   -28.1085    20.5063 C0            1 RES     
     811 C0          42.8355   -28.5396    21.5949 C0            1 RES     
     812 C0          44.1865   -27.8779    21.1600 C0            1 RES     
     813 C0          45.4408   -28.3678    21.9115 C0            1 RES     
     814 C0          46.7413   -27.6742    21.4688 C0            1 RES     
     815 C0          47.1187   -27.8448    19.9864 C0            1 RES     
     816 C0          47.1863   -29.2994    19.4923 C0            1 RES     
     817 C0          48.1737   -30.1711    20.2881 C0            1 RES     
     818 C0          48.2256   -31.6229    19.7852 C0            1 RES     
     819 C0          48.8140   -31.7452    18.3682 C0            1 RES     
     820 C0          48.9832   -33.2028    17.9122 C0            1 RES     
     821 C0          47.6550   -33.9420    17.7491 C0            1 RES     
     822 C0          42.6381   -28.4589    23.1670 C0            1 RES     
     823 C0          42.5337   -27.0996    23.9149 C0            1 RES     
     824 C0          41.0986   -26.7962    24.3816 C0            1 RES     
     825 C0          40.8742   -25.4593    25.0689 C0            1 RES     
     826 C0          41.4169   -25.3104    26.4833 C0            1 RES     
     827 C0          40.9161   -23.9533    27.0186 C0            1 RES     
     828 C0          41.2365   -23.6949    28.4919 C0            1 RES     
     829 C0          40.4692   -24.6317    29.4261 C0            1 RES     
     830 H6          42.0436   -27.1180    20.0859 H6            1 RES     
     831 H6          41.9641   -28.7681    19.6347 H6            1 RES     
     832 H6          42.9406   -29.6382    21.4397 H6            1 RES     
     833 H6          44.1077   -26.7762    21.2845 H6            1 RES     
     834 H6          44.3354   -28.0898    20.0794 H6            1 RES     
     835 H6          45.5330   -29.4679    21.7939 H6            1 RES     
     836 H6          45.3579   -28.1357    22.9909 H6            1 RES     
     837 H6          47.5666   -28.0704    22.0982 H6            1 RES     
     838 H6          46.6670   -26.5857    21.6848 H6            1 RES     
     839 H6          48.1068   -27.3595    19.8289 H6            1 RES     
     840 H6          46.3835   -27.3005    19.3561 H6            1 RES     
     841 H6          46.1745   -29.7557    19.5409 H6            1 RES     
     842 H6          47.4889   -29.2595    18.4261 H6            1 RES     
     843 H6          47.8441   -30.2113    21.3473 H6            1 RES     
     844 H6          49.1918   -29.7262    20.2573 H6            1 RES     
     845 H6          48.8758   -32.1967    20.4810 H6            1 RES     
     846 H6          47.2030   -32.0542    19.8293 H6            1 RES     
     847 H6          48.1821   -31.2135    17.6273 H6            1 RES     
     848 H6          49.8214   -31.2744    18.3710 H6            1 RES     
     849 H6          49.6295   -33.7502    18.6323 H6            1 RES     
     850 H6          49.4935   -33.1967    16.9250 H6            1 RES     
     851 H6          47.1198   -34.0284    18.7161 H6            1 RES     
     852 H6          47.0093   -33.4138    17.0155 H6            1 RES     
     853 H6          47.8508   -34.9685    17.3740 H6            1 RES     
     854 H6          43.5334   -28.9539    23.5860 H6            1 RES     
     855 H6          41.8945   -29.1823    23.5511 H6            1 RES     
     856 H6          43.1165   -27.1872    24.8583 H6            1 RES     
     857 H6          42.9878   -26.2826    23.3185 H6            1 RES     
     858 H6          40.7211   -27.6215    25.0271 H6            1 RES     
     859 H6          40.4428   -26.7193    23.5216 H6            1 RES     
     860 H6          41.2256   -24.6333    24.4131 H6            1 RES     
     861 H6          39.7809   -25.3853    25.1894 H6            1 RES     
     862 H6          41.0091   -26.1447    27.0922 H6            1 RES     
     863 H6          42.5258   -25.3564    26.4950 H6            1 RES     
     864 H6          41.3784   -23.1492    26.4047 H6            1 RES     
     865 H6          39.8110   -23.8745    26.8983 H6            1 RES     
     866 H6          40.9136   -22.6561    28.7231 H6            1 RES     
     867 H6          42.3281   -23.7742    28.6649 H6            1 RES     
     868 H6          40.7715   -25.6876    29.2792 H6            1 RES     
     869 H6          40.6810   -24.3533    30.4788 H6            1 RES     
     870 H6          39.3748   -24.5383    29.2514 H6            1 RES     
     871 C0          36.7669   -36.8215    11.6540 C0            1 RES     
     872 C1          36.7464   -35.3764    12.1988 C1            1 RES     
     873 C1          36.3742   -34.4731    11.2550 C1            1 RES     
     874 S2          36.4305   -32.8868    11.7871 S2            1 RES     
     875 C1          37.0071   -33.3508    13.3178 C1            1 RES     
     876 C1          37.1492   -34.7411    13.3853 C1            1 RES     
     877 C1          36.1499   -35.1526    10.0382 C1            1 RES     
     878 C1          36.4450   -36.4707    10.2005 C1            1 RES     
     879 C1          36.3845   -37.1768     9.0051 C1            1 RES     
     880 C1          35.9955   -36.3328     7.9513 C1            1 RES     
     881 S2          35.7467   -34.7380     8.4786 S2            1 RES     
     882 H3          37.5734   -35.2216    14.2464 H3            1 RES     
     883 H3          36.6119   -38.2311     8.9023 H3            1 RES     
     884 N4          34.6556   -37.0133     4.5173 N4            1 RES     
     885 C1          34.6988   -36.7143     5.8488 C1            1 RES     
     886 C1          35.9225   -36.6945     6.5400 C1            1 RES     
     887 C1          37.0887   -36.9659     5.8222 C1            1 RES     
     888 N4          38.3369   -36.9233     6.3546 N4            1 RES     
     889 S2          39.2881   -37.2603     5.0456 S2            1 RES     
     890 N4          38.2042   -37.4666     3.8123 N4            1 RES     
     891 C1          37.0191   -37.2542     4.4361 C1            1 RES     
     892 C1          35.7811   -37.2878     3.7998 C1            1 RES     
     893 H5          33.7736   -36.4990     6.3764 H5            1 RES     
     894 C0          35.7024   -37.8565    12.1624 C0            1 RES     
     895 C0          34.1563   -37.9527    11.8758 C0            1 RES     
     896 C0          33.6455   -39.1294    12.7796 C0            1 RES     
     897 C0          32.1641   -39.5061    12.6540 C0            1 RES     
     898 C0          31.7629   -40.6406    13.6260 C0            1 RES     
     899 C0          32.4745   -41.9945    13.4102 C0            1 RES     
     900 C0          32.3521   -42.5714    11.9888 C0            1 RES     
     901 C0          30.8928   -42.7675    11.5411 C0            1 RES     
     902 C0          30.7728   -43.2904    10.1025 C0            1 RES     
     903 C0          31.3040   -44.7238     9.9328 C0            1 RES     
     904 C0          31.0745   -45.2783     8.5178 C0            1 RES     
     905 C0          31.8677   -44.5338     7.4431 C0            1 RES     
     906 C0          33.2639   -36.6762    12.0142 C0            1 RES     
     907 C0          33.0920   -36.0144    13.4160 C0            1 RES     
     908 C0          33.5909   -34.5679    13.3461 C0            1 RES     
     909 C0          33.8262   -33.8267    14.6591 C0            1 RES     
     910 C0          32.5934   -33.2566    15.3450 C0            1 RES     
     911 C0          33.0626   -32.5152    16.6145 C0            1 RES     
     912 C0          31.9631   -31.7190    17.3212 C0            1 RES     
     913 C0          31.4973   -30.5161    16.4982 C0            1 RES     
     914 H6          35.7675   -37.8546    13.2204 H6            1 RES     
     915 H6          36.0865   -38.8394    11.8073 H6            1 RES     
     916 H6          34.0492   -38.2548    10.8100 H6            1 RES     
     917 H6          33.8301   -38.8783    13.8470 H6            1 RES     
     918 H6          34.2505   -40.0293    12.5374 H6            1 RES     
     919 H6          31.9295   -39.7865    11.6070 H6            1 RES     
     920 H6          31.5405   -38.6314    12.9285 H6            1 RES     
     921 H6          30.6672   -40.7946    13.5428 H6            1 RES     
     922 H6          31.9561   -40.3134    14.6717 H6            1 RES     
     923 H6          32.0517   -42.7255    14.1349 H6            1 RES     
     924 H6          33.5544   -41.8923    13.6505 H6            1 RES     
     925 H6          32.8699   -41.8973    11.2743 H6            1 RES     
     926 H6          32.8842   -43.5453    11.9814 H6            1 RES     
     927 H6          30.3784   -41.7851    11.5567 H6            1 RES     
     928 H6          30.3630   -43.4506    12.2407 H6            1 RES     
     929 H6          29.6939   -43.2874     9.8337 H6            1 RES     
     930 H6          31.3020   -42.5874     9.4256 H6            1 RES     
     931 H6          32.3877   -44.7764    10.1660 H6            1 RES     
     932 H6          30.7594   -45.3805    10.6458 H6            1 RES     
     933 H6          29.9908   -45.2460     8.2714 H6            1 RES     
     934 H6          31.3995   -46.3410     8.5065 H6            1 RES     
     935 H6          31.5507   -43.4742     7.3676 H6            1 RES     
     936 H6          32.9542   -44.5784     7.6694 H6            1 RES     
     937 H6          31.6902   -45.0130     6.4576 H6            1 RES     
     938 H6          32.2448   -36.9389    11.6580 H6            1 RES     
     939 H6          33.5983   -35.9350    11.2571 H6            1 RES     
     940 H6          32.0203   -35.9981    13.7164 H6            1 RES     
     941 H6          33.6562   -36.5874    14.1797 H6            1 RES     
     942 H6          33.0040   -33.9537    12.6310 H6            1 RES     
     943 H6          34.5778   -34.6684    12.9472 H6            1 RES     
     944 H6          34.3905   -34.4715    15.3373 H6            1 RES     
     945 H6          34.4784   -32.9573    14.4153 H6            1 RES     
     946 H6          32.1156   -32.5537    14.6300 H6            1 RES     
     947 H6          31.8701   -34.0561    15.6110 H6            1 RES     
     948 H6          33.4703   -33.2715    17.3230 H6            1 RES     
     949 H6          33.8865   -31.8068    16.3696 H6            1 RES     
     950 H6          32.3882   -31.3259    18.2709 H6            1 RES     
     951 H6          31.1058   -32.3804    17.5670 H6            1 RES     
     952 H6          31.0232   -30.8324    15.5483 H6            1 RES     
     953 H6          30.7537   -29.9347    17.0802 H6            1 RES     
     954 H6          32.3605   -29.8517    16.2696 H6            1 RES     
     955 C0          38.2463   -37.3265    11.8821 C0            1 RES     
     956 C0          38.6913   -38.4725    12.8994 C0            1 RES     
     957 C0          40.2147   -38.2454    13.1825 C0            1 RES     
     958 C0          40.9310   -39.3880    13.9304 C0            1 RES     
     959 C0          42.4193   -39.1122    14.2080 C0            1 RES     
     960 C0          43.3002   -38.8853    12.9664 C0            1 RES     
     961 C0          43.2320   -39.9958    11.9049 C0            1 RES     
     962 C0          43.6082   -41.3857    12.4478 C0            1 RES     
     963 C0          43.5302   -42.4850    11.3760 C0            1 RES     
     964 C0          44.5844   -42.3162    10.2673 C0            1 RES     
     965 C0          44.5914   -43.4797     9.2636 C0            1 RES     
     966 C0          43.3059   -43.5753     8.4416 C0            1 RES     
     967 C0          37.9161   -38.8740    14.2241 C0            1 RES     
     968 C0          37.8306   -37.9201    15.4491 C0            1 RES     
     969 C0          36.4336   -37.2936    15.6077 C0            1 RES     
     970 C0          36.2598   -36.2943    16.7394 C0            1 RES     
     971 C0          36.2223   -36.8534    18.1547 C0            1 RES     
     972 C0          35.8659   -35.6827    19.0936 C0            1 RES     
     973 C0          35.6310   -36.0863    20.5503 C0            1 RES     
     974 C0          34.3719   -36.9375    20.7214 C0            1 RES     
     975 H6          38.8914   -36.4326    12.0486 H6            1 RES     
     976 H6          38.6320   -37.6728    10.8966 H6            1 RES     
     977 H6          38.6027   -39.4064    12.2976 H6            1 RES     
     978 H6          40.3396   -37.3080    13.7663 H6            1 RES     
     979 H6          40.7247   -38.1094    12.2046 H6            1 RES     
     980 H6          40.8158   -40.3314    13.3567 H6            1 RES     
     981 H6          40.4848   -39.5304    14.9337 H6            1 RES     
     982 H6          42.8214   -39.9744    14.7818 H6            1 RES     
     983 H6          42.5095   -38.2194    14.8651 H6            1 RES     
     984 H6          44.3515   -38.7737    13.3110 H6            1 RES     
     985 H6          43.0117   -37.9279    12.4825 H6            1 RES     
     986 H6          42.2086   -40.0361    11.4744 H6            1 RES     
     987 H6          43.9294   -39.7035    11.0936 H6            1 RES     
     988 H6          42.8895   -41.6659    13.2460 H6            1 RES     
     989 H6          44.6277   -41.3637    12.8900 H6            1 RES     
     990 H6          43.7105   -43.4594    11.8800 H6            1 RES     
     991 H6          42.5044   -42.4982    10.9502 H6            1 RES     
     992 H6          44.4287   -41.3693     9.7106 H6            1 RES     
     993 H6          45.5869   -42.2796    10.7470 H6            1 RES     
     994 H6          44.7646   -44.4384     9.7992 H6            1 RES     
     995 H6          45.4357   -43.3200     8.5587 H6            1 RES     
     996 H6          42.4296   -43.7883     9.0864 H6            1 RES     
     997 H6          43.1343   -42.6288     7.8860 H6            1 RES     
     998 H6          43.4005   -44.4041     7.7089 H6            1 RES     
     999 H6          38.4413   -39.7745    14.5921 H6            1 RES     
    1000 H6          36.9413   -39.3593    14.0291 H6            1 RES     
    1001 H6          37.9613   -38.5355    16.3665 H6            1 RES     
    1002 H6          38.6511   -37.1745    15.4295 H6            1 RES     
    1003 H6          35.6605   -38.0915    15.6854 H6            1 RES     
    1004 H6          36.2026   -36.6896    14.7373 H6            1 RES     
    1005 H6          37.0138   -35.4826    16.6463 H6            1 RES     
    1006 H6          35.2529   -35.8714    16.5888 H6            1 RES     
    1007 H6          35.4344   -37.6353    18.1893 H6            1 RES     
    1008 H6          37.1974   -37.3035    18.4348 H6            1 RES     
    1009 H6          36.6976   -34.9452    19.0554 H6            1 RES     
    1010 H6          34.9440   -35.1682    18.7368 H6            1 RES     
    1011 H6          35.4822   -35.1506    21.1326 H6            1 RES     
    1012 H6          36.5201   -36.6145    20.9483 H6            1 RES     
    1013 H6          34.4655   -37.9095    20.1978 H6            1 RES     
    1014 H6          34.2096   -37.1386    21.8002 H6            1 RES     
    1015 H6          33.4842   -36.3954    20.3277 H6            1 RES     
    1016 C0          35.3395   -39.9664    -0.9127 C0            1 RES     
    1017 C1          35.4276   -38.8989     0.2001 C1            1 RES     
    1018 C1          35.6657   -37.6559    -0.2933 C1            1 RES     
    1019 S2          35.8586   -36.4902     0.8926 S2            1 RES     
    1020 C1          35.6701   -37.6315     2.1386 C1            1 RES     
    1021 C1          35.4624   -38.9079     1.6045 C1            1 RES     
    1022 C1          35.7925   -37.7399    -1.6968 C1            1 RES     
    1023 C1          35.7002   -39.0429    -2.0773 C1            1 RES     
    1024 C1          35.9588   -39.2174    -3.4315 C1            1 RES     
    1025 C1          36.2119   -37.9814    -4.0500 C1            1 RES     
    1026 S2          36.1362   -36.6949    -2.9443 S2            1 RES     
    1027 H3          35.3967   -39.7761     2.2323 H3            1 RES     
    1028 H3          35.9685   -40.1758    -3.9365 H3            1 RES     
    1029 N4          36.2125   -36.8910    -7.6363 N4            1 RES     
    1030 C1          35.7948   -37.1089    -6.3548 C1            1 RES     
    1031 C1          36.6204   -37.7791    -5.4356 C1            1 RES     
    1032 C1          37.8830   -38.1926    -5.8643 C1            1 RES     
    1033 N4          38.7979   -38.7972    -5.0638 N4            1 RES     
    1034 S2          40.0860   -38.9841    -6.0825 S2            1 RES     
    1035 N4          39.5566   -38.3389    -7.5114 N4            1 RES     
    1036 C1          38.3009   -37.9370    -7.1945 C1            1 RES     
    1037 C1          37.4379   -37.2924    -8.0768 C1            1 RES     
    1038 H5          34.8096   -36.7664    -6.0504 H5            1 RES     
    1039 C0          33.9604   -40.6463    -1.2269 C0            1 RES     
    1040 C0          32.6713   -40.0639    -1.9203 C0            1 RES     
    1041 C0          31.5999   -41.2057    -1.8163 C0            1 RES     
    1042 C0          30.2433   -40.9449    -2.4825 C0            1 RES     
    1043 C0          29.2524   -42.1141    -2.2725 C0            1 RES     
    1044 C0          29.6724   -43.4697    -2.8823 C0            1 RES     
    1045 C0          29.9930   -43.4318    -4.3869 C0            1 RES     
    1046 C0          28.8224   -42.9118    -5.2400 C0            1 RES     
    1047 C0          29.1639   -42.8221    -6.7343 C0            1 RES     
    1048 C0          29.3872   -44.1963    -7.3880 C0            1 RES     
    1049 C0          29.6147   -44.1019    -8.9051 C0            1 RES     
    1050 C0          30.9094   -43.3778    -9.2763 C0            1 RES     
    1051 C0          32.1031   -38.6820    -1.4590 C0            1 RES     
    1052 C0          31.5462   -38.5321    -0.0098 C0            1 RES     
    1053 C0          32.3395   -37.4411     0.7159 C0            1 RES     
    1054 C0          32.1986   -37.3410     2.2321 C0            1 RES     
    1055 C0          30.9552   -36.6340     2.7512 C0            1 RES     
    1056 C0          31.0402   -36.6044     4.2918 C0            1 RES     
    1057 C0          29.9578   -35.7581     4.9659 C0            1 RES     
    1058 C0          30.1315   -34.2638     4.6865 C0            1 RES     
    1059 H6          33.6038   -41.0343    -0.3071 H6            1 RES     
    1060 H6          34.2248   -41.5133    -1.8734 H6            1 RES     
    1061 H6          32.9270   -39.9171    -2.9935 H6            1 RES     
    1062 H6          31.4015   -41.4255    -0.7445 H6            1 RES     
    1063 H6          32.0357   -42.1210    -2.2712 H6            1 RES     
    1064 H6          30.3826   -40.7392    -3.5633 H6            1 RES     
    1065 H6          29.7727   -40.0558    -2.0163 H6            1 RES     
    1066 H6          28.2727   -41.8169    -2.7005 H6            1 RES     
    1067 H6          29.0871   -42.2637    -1.1825 H6            1 RES     
    1068 H6          28.8486   -44.1968    -2.7062 H6            1 RES     
    1069 H6          30.5648   -43.8602    -2.3479 H6            1 RES     
    1070 H6          30.8850   -42.7921    -4.5551 H6            1 RES     
    1071 H6          30.2551   -44.4655    -4.6942 H6            1 RES     
    1072 H6          28.5748   -41.8800    -4.9173 H6            1 RES     
    1073 H6          27.9236   -43.5496    -5.0918 H6            1 RES     
    1074 H6          28.3070   -42.3313    -7.2451 H6            1 RES     
    1075 H6          30.0578   -42.1746    -6.8544 H6            1 RES     
    1076 H6          30.2515   -44.7194    -6.9288 H6            1 RES     
    1077 H6          28.4758   -44.8106    -7.2203 H6            1 RES     
    1078 H6          28.7510   -43.5918    -9.3849 H6            1 RES     
    1079 H6          29.6738   -45.1351    -9.3104 H6            1 RES     
    1080 H6          30.8908   -42.3202    -8.9444 H6            1 RES     
    1081 H6          31.7807   -43.8926    -8.8186 H6            1 RES     
    1082 H6          31.0315   -43.3860   -10.3797 H6            1 RES     
    1083 H6          31.2749   -38.4125    -2.1488 H6            1 RES     
    1084 H6          32.8630   -37.9025    -1.6812 H6            1 RES     
    1085 H6          30.4752   -38.2292    -0.0275 H6            1 RES     
    1086 H6          31.6233   -39.4978     0.5299 H6            1 RES     
    1087 H6          32.2323   -36.4483     0.2303 H6            1 RES     
    1088 H6          33.3549   -37.7516     0.5893 H6            1 RES     
    1089 H6          32.2934   -38.3392     2.6665 H6            1 RES     
    1090 H6          33.0691   -36.7446     2.5887 H6            1 RES     
    1091 H6          30.9650   -35.6046     2.3344 H6            1 RES     
    1092 H6          30.0280   -37.1517     2.4264 H6            1 RES     
    1093 H6          30.9586   -37.6520     4.6604 H6            1 RES     
    1094 H6          32.0288   -36.2096     4.6197 H6            1 RES     
    1095 H6          30.0518   -35.9027     6.0647 H6            1 RES     
    1096 H6          28.9495   -36.1004     4.6513 H6            1 RES     
    1097 H6          30.0108   -34.0349     3.6093 H6            1 RES     
    1098 H6          29.3681   -33.6904     5.2505 H6            1 RES     
    1099 H6          31.1389   -33.9271     5.0186 H6            1 RES     
    1100 C0          36.4588   -41.0235    -0.5586 C0            1 RES     
    1101 C0          36.2030   -42.5282    -0.0933 C0            1 RES     
    1102 C0          37.5022   -42.9881     0.6504 C0            1 RES     
    1103 C0          37.5951   -44.4961     0.9589 C0            1 RES     
    1104 C0          38.8759   -44.8991     1.7108 C0            1 RES     
    1105 C0          40.1997   -44.5965     0.9862 C0            1 RES     
    1106 C0          40.3093   -45.1638    -0.4388 C0            1 RES     
    1107 C0          40.1242   -46.6900    -0.5062 C0            1 RES     
    1108 C0          40.2315   -47.2404    -1.9375 C0            1 RES     
    1109 C0          41.6451   -47.0976    -2.5296 C0            1 RES     
    1110 C0          41.7874   -47.7581    -3.9097 C0            1 RES     
    1111 C0          40.9412   -47.0855    -4.9907 C0            1 RES     
    1112 C0          34.9022   -43.0491     0.6508 C0            1 RES     
    1113 C0          34.5565   -42.6173     2.1041 C0            1 RES     
    1114 C0          33.3860   -41.6191     2.1562 C0            1 RES     
    1115 C0          33.0082   -41.0835     3.5273 C0            1 RES     
    1116 C0          32.2955   -42.0421     4.4709 C0            1 RES     
    1117 C0          31.8683   -41.2248     5.7072 C0            1 RES     
    1118 C0          30.9976   -41.9911     6.7046 C0            1 RES     
    1119 C0          29.6179   -42.3242     6.1351 C0            1 RES     
    1120 H6          37.1675   -40.5452     0.1569 H6            1 RES     
    1121 H6          37.1130   -41.1232    -1.4541 H6            1 RES     
    1122 H6          36.1531   -43.0944    -1.0519 H6            1 RES     
    1123 H6          37.5923   -42.4258     1.6049 H6            1 RES     
    1124 H6          38.3713   -42.7193     0.0123 H6            1 RES     
    1125 H6          37.5082   -45.0705     0.0128 H6            1 RES     
    1126 H6          36.7715   -44.8025     1.6326 H6            1 RES     
    1127 H6          38.8186   -45.9896     1.9152 H6            1 RES     
    1128 H6          38.8963   -44.3881     2.6984 H6            1 RES     
    1129 H6          41.0278   -45.0044     1.6062 H6            1 RES     
    1130 H6          40.3441   -43.4964     0.9312 H6            1 RES     
    1131 H6          39.5557   -44.6748    -1.0924 H6            1 RES     
    1132 H6          41.3150   -44.8863    -0.8152 H6            1 RES     
    1133 H6          39.1073   -46.9447    -0.1412 H6            1 RES     
    1134 H6          40.8657   -47.1974     0.1481 H6            1 RES     
    1135 H6          39.9788   -48.3225    -1.9015 H6            1 RES     
    1136 H6          39.4799   -46.7288    -2.5756 H6            1 RES     
    1137 H6          41.9343   -46.0300    -2.6166 H6            1 RES     
    1138 H6          42.3599   -47.5990    -1.8412 H6            1 RES     
    1139 H6          41.5194   -48.8349    -3.8414 H6            1 RES     
    1140 H6          42.8530   -47.6858    -4.2167 H6            1 RES     
    1141 H6          39.8586   -47.1714    -4.7675 H6            1 RES     
    1142 H6          41.2157   -46.0130    -5.0812 H6            1 RES     
    1143 H6          41.1294   -47.5828    -5.9654 H6            1 RES     
    1144 H6          35.0272   -44.1466     0.6949 H6            1 RES     
    1145 H6          34.0010   -43.0437     0.0093 H6            1 RES     
    1146 H6          34.1770   -43.5139     2.6419 H6            1 RES     
    1147 H6          35.4619   -42.2670     2.6399 H6            1 RES     
    1148 H6          32.4886   -42.0520     1.6586 H6            1 RES     
    1149 H6          33.6551   -40.7118     1.6270 H6            1 RES     
    1150 H6          33.8976   -40.6264     4.0130 H6            1 RES     
    1151 H6          32.2621   -40.2972     3.3261 H6            1 RES     
    1152 H6          31.4054   -42.4408     3.9399 H6            1 RES     
    1153 H6          32.9564   -42.8850     4.7618 H6            1 RES     
    1154 H6          32.7892   -40.8792     6.2265 H6            1 RES     
    1155 H6          31.2993   -40.3192     5.3940 H6            1 RES     
    1156 H6          30.8436   -41.3296     7.5853 H6            1 RES     
    1157 H6          31.5181   -42.9107     7.0381 H6            1 RES     
    1158 H6          29.6915   -43.0172     5.2735 H6            1 RES     
    1159 H6          29.0052   -42.8115     6.9210 H6            1 RES     
    1160 H6          29.1000   -41.3946     5.8118 H6            1 RES     
    1161 C0          38.2993   -37.8151   -13.4212 C0            1 RES     
    1162 C1          38.1778   -37.3099   -11.9666 C1            1 RES     
    1163 C1          38.8594   -36.1528   -11.7623 C1            1 RES     
    1164 S2          38.8246   -35.6266   -10.1735 S2            1 RES     
    1165 C1          37.9144   -36.9742    -9.6773 C1            1 RES     
    1166 C1          37.6558   -37.8160   -10.7645 C1            1 RES     
    1167 C1          39.5046   -35.7867   -12.9633 C1            1 RES     
    1168 C1          39.2829   -36.7468   -13.9013 C1            1 RES     
    1169 C1          40.0064   -36.5240   -15.0667 C1            1 RES     
    1170 C1          40.7490   -35.3352   -14.9683 C1            1 RES     
    1171 S2          40.5326   -34.5785   -13.4636 S2            1 RES     
    1172 H3          37.1585   -38.7591   -10.6394 H3            1 RES     
    1173 H3          40.0009   -37.1810   -15.9282 H3            1 RES     
    1174 N4          42.3982   -33.1535   -17.5316 N4            1 RES     
    1175 C1          41.4742   -33.6318   -16.6474 C1            1 RES     
    1176 C1          41.7021   -34.8311   -15.9506 C1            1 RES     
    1177 C1          42.9059   -35.5026   -16.1718 C1            1 RES     
    1178 N4          43.2745   -36.6369   -15.5230 N4            1 RES     
    1179 S2          44.7827   -36.9180   -16.1379 S2            1 RES     
    1180 N4          45.0137   -35.6726   -17.2028 N4            1 RES     
    1181 C1          43.8575   -34.9750   -17.0803 C1            1 RES     
    1182 C1          43.5760   -33.7969   -17.7671 C1            1 RES     
    1183 H5          40.5511   -33.0803   -16.4915 H5            1 RES     
    1184 C0          37.0408   -37.7885   -14.3583 C0            1 RES     
    1185 C0          36.2911   -36.5734   -15.0241 C0            1 RES     
    1186 C0          35.0409   -37.2032   -15.7331 C0            1 RES     
    1187 C0          34.1489   -36.2506   -16.5388 C0            1 RES     
    1188 C0          32.9229   -36.9702   -17.1488 C0            1 RES     
    1189 C0          33.2368   -38.0842   -18.1716 C0            1 RES     
    1190 C0          34.1218   -37.6487   -19.3528 C0            1 RES     
    1191 C0          33.5268   -36.4757   -20.1518 C0            1 RES     
    1192 C0          34.4378   -36.0067   -21.2953 C0            1 RES     
    1193 C0          34.5892   -37.0495   -22.4156 C0            1 RES     
    1194 C0          35.4084   -36.5268   -23.6064 C0            1 RES     
    1195 C0          36.8703   -36.2473   -23.2554 C0            1 RES     
    1196 C0          35.9090   -35.3311   -14.1548 C0            1 RES     
    1197 C0          34.8765   -35.4986   -12.9978 C0            1 RES     
    1198 C0          35.5416   -35.0977   -11.6776 C0            1 RES     
    1199 C0          34.8431   -35.4838   -10.3769 C0            1 RES     
    1200 C0          33.6860   -34.5971    -9.9408 C0            1 RES     
    1201 C0          33.1640   -35.1352    -8.5920 C0            1 RES     
    1202 C0          32.1207   -34.2408    -7.9185 C0            1 RES     
    1203 C0          32.7164   -32.9169    -7.4351 C0            1 RES     
    1204 H6          36.2756   -38.3111   -13.8434 H6            1 RES     
    1205 H6          37.3385   -38.4109   -15.2323 H6            1 RES     
    1206 H6          36.9730   -36.1692   -15.8053 H6            1 RES     
    1207 H6          34.3945   -37.6910   -14.9710 H6            1 RES     
    1208 H6          35.4056   -37.9962   -16.4205 H6            1 RES     
    1209 H6          34.7430   -35.7503   -17.3304 H6            1 RES     
    1210 H6          33.7429   -35.4713   -15.8627 H6            1 RES     
    1211 H6          32.2822   -36.2066   -17.6362 H6            1 RES     
    1212 H6          32.3145   -37.4158   -16.3308 H6            1 RES     
    1213 H6          32.2712   -38.4715   -18.5666 H6            1 RES     
    1214 H6          33.7373   -38.9332   -17.6587 H6            1 RES     
    1215 H6          35.1258   -37.3648   -18.9728 H6            1 RES     
    1216 H6          34.2473   -38.5315   -20.0136 H6            1 RES     
    1217 H6          33.4077   -35.6053   -19.4749 H6            1 RES     
    1218 H6          32.5249   -36.7487   -20.5498 H6            1 RES     
    1219 H6          33.9820   -35.0921   -21.7334 H6            1 RES     
    1220 H6          35.4264   -35.7333   -20.8702 H6            1 RES     
    1221 H6          35.0647   -37.9768   -22.0341 H6            1 RES     
    1222 H6          33.5736   -37.3043   -22.7897 H6            1 RES     
    1223 H6          34.9387   -35.6038   -24.0111 H6            1 RES     
    1224 H6          35.3913   -37.3009   -24.4037 H6            1 RES     
    1225 H6          36.9578   -35.4416   -22.4990 H6            1 RES     
    1226 H6          37.3545   -37.1695   -22.8696 H6            1 RES     
    1227 H6          37.4104   -35.9176   -24.1675 H6            1 RES     
    1228 H6          35.5001   -34.5563   -14.8381 H6            1 RES     
    1229 H6          36.8473   -34.8592   -13.7921 H6            1 RES     
    1230 H6          33.9944   -34.8384   -13.1569 H6            1 RES     
    1231 H6          34.5196   -36.5476   -12.9545 H6            1 RES     
    1232 H6          35.8564   -34.0329   -11.6705 H6            1 RES     
    1233 H6          36.4289   -35.6941   -11.6596 H6            1 RES     
    1234 H6          34.5361   -36.5311   -10.4334 H6            1 RES     
    1235 H6          35.6124   -35.4108    -9.5748 H6            1 RES     
    1236 H6          34.0863   -33.5673    -9.8278 H6            1 RES     
    1237 H6          32.8711   -34.5923   -10.6951 H6            1 RES     
    1238 H6          32.7144   -36.1379    -8.7732 H6            1 RES     
    1239 H6          34.0053   -35.2698    -7.8746 H6            1 RES     
    1240 H6          31.7414   -34.7800    -7.0227 H6            1 RES     
    1241 H6          31.2682   -34.0582    -8.6061 H6            1 RES     
    1242 H6          33.0821   -32.3025    -8.2813 H6            1 RES     
    1243 H6          31.9407   -32.3369    -6.8952 H6            1 RES     
    1244 H6          33.5601   -33.1100    -6.7353 H6            1 RES     
    1245 C0          38.9254   -39.2608   -13.3039 C0            1 RES     
    1246 C0          38.1811   -40.6278   -13.6552 C0            1 RES     
    1247 C0          38.9472   -41.7582   -12.8885 C0            1 RES     
    1248 C0          38.5749   -43.2016   -13.2834 C0            1 RES     
    1249 C0          39.3341   -44.2789   -12.4889 C0            1 RES     
    1250 C0          40.8672   -44.2519   -12.6223 C0            1 RES     
    1251 C0          41.3985   -44.2895   -14.0648 C0            1 RES     
    1252 C0          40.9215   -45.5167   -14.8613 C0            1 RES     
    1253 C0          41.4571   -45.5367   -16.3021 C0            1 RES     
    1254 C0          42.9829   -45.7264   -16.3713 C0            1 RES     
    1255 C0          43.5051   -45.8720   -17.8091 C0            1 RES     
    1256 C0          43.3229   -44.6072   -18.6482 C0            1 RES     
    1257 C0          36.6125   -40.8585   -13.5979 C0            1 RES     
    1258 C0          35.8293   -40.8613   -12.2545 C0            1 RES     
    1259 C0          34.9851   -39.5882   -12.0656 C0            1 RES     
    1260 C0          34.2285   -39.4612   -10.7537 C0            1 RES     
    1261 C0          33.0096   -40.3544   -10.5702 C0            1 RES     
    1262 C0          32.3242   -39.9194    -9.2587 C0            1 RES     
    1263 C0          30.9858   -40.6073    -8.9837 C0            1 RES     
    1264 C0          29.9037   -40.1926    -9.9818 C0            1 RES     
    1265 H6          39.3832   -39.3546   -12.2917 H6            1 RES     
    1266 H6          39.8388   -39.2769   -13.9407 H6            1 RES     
    1267 H6          38.3873   -40.7672   -14.7415 H6            1 RES     
    1268 H6          38.7777   -41.6355   -11.7969 H6            1 RES     
    1269 H6          40.0330   -41.6237   -13.0828 H6            1 RES     
    1270 H6          38.7414   -43.3388   -14.3725 H6            1 RES     
    1271 H6          37.5075   -43.3975   -13.0639 H6            1 RES     
    1272 H6          38.9611   -45.2706   -12.8230 H6            1 RES     
    1273 H6          39.0780   -44.1864   -11.4105 H6            1 RES     
    1274 H6          41.2728   -45.1221   -12.0611 H6            1 RES     
    1275 H6          41.2615   -43.3355   -12.1335 H6            1 RES     
    1276 H6          41.0906   -43.3650   -14.5984 H6            1 RES     
    1277 H6          42.5055   -44.2881   -13.9962 H6            1 RES     
    1278 H6          39.8141   -45.4904   -14.9322 H6            1 RES     
    1279 H6          41.2144   -46.4530   -14.3386 H6            1 RES     
    1280 H6          40.9776   -46.3913   -16.8273 H6            1 RES     
    1281 H6          41.1498   -44.5987   -16.8116 H6            1 RES     
    1282 H6          43.5118   -44.8801   -15.8866 H6            1 RES     
    1283 H6          43.2399   -46.6595   -15.8238 H6            1 RES     
    1284 H6          43.0006   -46.7276   -18.3084 H6            1 RES     
    1285 H6          44.5929   -46.0938   -17.7585 H6            1 RES     
    1286 H6          42.2499   -44.3620   -18.7808 H6            1 RES     
    1287 H6          43.8411   -43.7499   -18.1681 H6            1 RES     
    1288 H6          43.7632   -44.7687   -19.6546 H6            1 RES     
    1289 H6          36.4636   -41.8676   -14.0240 H6            1 RES     
    1290 H6          36.0608   -40.3019   -14.3786 H6            1 RES     
    1291 H6          35.0808   -41.6828   -12.3014 H6            1 RES     
    1292 H6          36.5049   -41.0757   -11.4018 H6            1 RES     
    1293 H6          34.2832   -39.4613   -12.9210 H6            1 RES     
    1294 H6          35.6340   -38.7201   -12.0355 H6            1 RES     
    1295 H6          34.9332   -39.5601    -9.8996 H6            1 RES     
    1296 H6          33.8155   -38.4390   -10.7653 H6            1 RES     
    1297 H6          32.3350   -40.1892   -11.4367 H6            1 RES     
    1298 H6          33.2987   -41.4252   -10.5301 H6            1 RES     
    1299 H6          33.0191   -40.1378    -8.4181 H6            1 RES     
    1300 H6          32.1398   -38.8203    -9.2652 H6            1 RES     
    1301 H6          30.6493   -40.2838    -7.9741 H6            1 RES     
    1302 H6          31.1159   -41.7076    -8.9789 H6            1 RES     
    1303 H6          30.1540   -40.5203   -11.0103 H6            1 RES     
    1304 H6          28.9404   -40.6608    -9.6931 H6            1 RES     
    1305 H6          29.7742   -39.0880    -9.9726 H6            1 RES     
    1306 C0          46.3263   -32.7162   -22.3329 C0            1 RES     
    1307 C1          45.7590   -32.7382   -20.8964 C1            1 RES     
    1308 C1          46.5437   -32.0590   -20.0200 C1            1 RES     
    1309 S2          46.0058   -32.1410   -18.4368 S2            1 RES     
    1310 C1          44.7000   -33.1433   -18.8623 C1            1 RES     
    1311 C1          44.7092   -33.3998   -20.2377 C1            1 RES     
    1312 C1          47.6720   -31.5638   -20.7087 C1            1 RES     
    1313 C1          47.6294   -31.9877   -22.0008 C1            1 RES     
    1314 C1          48.7820   -31.6574   -22.7035 C1            1 RES     
    1315 C1          49.6696   -30.9365   -21.8870 C1            1 RES     
    1316 S2          49.0537   -30.7237   -20.3189 S2            1 RES     
    1317 H3          44.0072   -34.0755   -20.6882 H3            1 RES     
    1318 H3          48.9695   -31.9250   -23.7364 H3            1 RES     
    1319 N4          52.6311   -28.7697   -22.6520 N4            1 RES     
    1320 C1          51.3533   -29.1501   -22.3572 C1            1 RES     
    1321 C1          51.0177   -30.5105   -22.2461 C1            1 RES     
    1322 C1          52.0303   -31.4551   -22.4227 C1            1 RES     
    1323 N4          51.8535   -32.7943   -22.2861 N4            1 RES     
    1324 S2          53.3789   -33.3772   -22.5417 S2            1 RES     
    1325 N4          54.2789   -32.0178   -22.8254 N4            1 RES     
    1326 C1          53.3532   -31.0338   -22.7086 C1            1 RES     
    1327 C1          53.6324   -29.6756   -22.8349 C1            1 RES     
    1328 H5          50.5903   -28.3894   -22.2170 H5            1 RES     
    1329 C0          45.5764   -31.9082   -23.4498 C0            1 RES     
    1330 C0          45.4376   -30.3536   -23.6642 C0            1 RES     
    1331 C0          44.4602   -30.1945   -24.8814 C0            1 RES     
    1332 C0          44.1911   -28.7662   -25.3713 C0            1 RES     
    1333 C0          43.1765   -28.7278   -26.5383 C0            1 RES     
    1334 C0          43.6112   -29.4515   -27.8318 C0            1 RES     
    1335 C0          44.9612   -28.9911   -28.4094 C0            1 RES     
    1336 C0          45.0034   -27.4835   -28.7158 C0            1 RES     
    1337 C0          46.3693   -27.0167   -29.2392 C0            1 RES     
    1338 C0          46.7130   -27.5857   -30.6262 C0            1 RES     
    1339 C0          48.0274   -27.0226   -31.1897 C0            1 RES     
    1340 C0          49.2567   -27.4380   -30.3807 C0            1 RES     
    1341 C0          45.0306   -29.4410   -22.4614 C0            1 RES     
    1342 C0          43.6178   -29.6075   -21.8220 C0            1 RES     
    1343 C0          43.7824   -29.9613   -20.3409 C0            1 RES     
    1344 C0          42.5629   -30.4887   -19.5902 C0            1 RES     
    1345 C0          41.5552   -29.4495   -19.1208 C0            1 RES     
    1346 C0          40.4408   -30.1895   -18.3516 C0            1 RES     
    1347 C0          39.4433   -29.2675   -17.6466 C0            1 RES     
    1348 C0          40.0787   -28.5092   -16.4793 C0            1 RES     
    1349 H6          44.5755   -32.2572   -23.4481 H6            1 RES     
    1350 H6          46.0472   -32.2526   -24.3982 H6            1 RES     
    1351 H6          46.4424   -29.9841   -23.9684 H6            1 RES     
    1352 H6          43.4760   -30.6425   -24.6222 H6            1 RES     
    1353 H6          44.8797   -30.7755   -25.7305 H6            1 RES     
    1354 H6          45.1428   -28.2779   -25.6638 H6            1 RES     
    1355 H6          43.7360   -28.1781   -24.5490 H6            1 RES     
    1356 H6          42.9649   -27.6648   -26.7764 H6            1 RES     
    1357 H6          42.2137   -29.1726   -26.2023 H6            1 RES     
    1358 H6          42.8184   -29.2956   -28.5970 H6            1 RES     
    1359 H6          43.6686   -30.5456   -27.6474 H6            1 RES     
    1360 H6          45.7713   -29.2450   -27.6936 H6            1 RES     
    1361 H6          45.1370   -29.5711   -29.3391 H6            1 RES     
    1362 H6          44.8243   -26.9220   -27.7763 H6            1 RES     
    1363 H6          44.2047   -27.2147   -29.4414 H6            1 RES     
    1364 H6          46.3369   -25.9082   -29.3185 H6            1 RES     
    1365 H6          47.1456   -27.2897   -28.4939 H6            1 RES     
    1366 H6          46.7823   -28.6928   -30.5958 H6            1 RES     
    1367 H6          45.8967   -27.3044   -31.3268 H6            1 RES     
    1368 H6          47.9714   -25.9132   -31.2403 H6            1 RES     
    1369 H6          48.1535   -27.4093   -32.2240 H6            1 RES     
    1370 H6          49.2164   -27.0356   -29.3484 H6            1 RES     
    1371 H6          49.3332   -28.5455   -30.3420 H6            1 RES     
    1372 H6          50.1698   -27.0357   -30.8672 H6            1 RES     
    1373 H6          45.1053   -28.3856   -22.8006 H6            1 RES     
    1374 H6          45.8304   -29.5025   -21.6927 H6            1 RES     
    1375 H6          43.0390   -28.6591   -21.8903 H6            1 RES     
    1376 H6          43.0497   -30.3979   -22.3533 H6            1 RES     
    1377 H6          44.2964   -29.1593   -19.7704 H6            1 RES     
    1378 H6          44.4353   -30.8078   -20.3625 H6            1 RES     
    1379 H6          42.0789   -31.2613   -20.1927 H6            1 RES     
    1380 H6          42.9511   -30.9848   -18.6716 H6            1 RES     
    1381 H6          42.0964   -28.7457   -18.4535 H6            1 RES     
    1382 H6          41.1247   -28.8860   -19.9754 H6            1 RES     
    1383 H6          39.8883   -30.8283   -19.0776 H6            1 RES     
    1384 H6          40.8805   -30.8621   -17.5802 H6            1 RES     
    1385 H6          38.6337   -29.9041   -17.2265 H6            1 RES     
    1386 H6          38.9925   -28.5598   -18.3737 H6            1 RES     
    1387 H6          40.8733   -27.8199   -16.8267 H6            1 RES     
    1388 H6          39.3029   -27.9107   -15.9603 H6            1 RES     
    1389 H6          40.5145   -29.2271   -15.7489 H6            1 RES     
    1390 C0          46.5189   -34.2349   -22.7228 C0            1 RES     
    1391 C0          45.6894   -35.0217   -23.8359 C0            1 RES     
    1392 C0          45.8220   -36.5439   -23.4928 C0            1 RES     
    1393 C0          45.3249   -37.5179   -24.5801 C0            1 RES     
    1394 C0          45.4521   -39.0013   -24.1911 C0            1 RES     
    1395 C0          46.8791   -39.4936   -23.8904 C0            1 RES     
    1396 C0          47.9111   -39.2220   -24.9975 C0            1 RES     
    1397 C0          47.5259   -39.8320   -26.3568 C0            1 RES     
    1398 C0          48.5649   -39.5472   -27.4534 C0            1 RES     
    1399 C0          49.9122   -40.2462   -27.1979 C0            1 RES     
    1400 C0          50.9103   -40.0661   -28.3523 C0            1 RES     
    1401 C0          51.3571   -38.6166   -28.5431 C0            1 RES     
    1402 C0          44.2155   -34.6661   -24.3029 C0            1 RES     
    1403 C0          42.9886   -34.8461   -23.3647 C0            1 RES     
    1404 C0          42.4429   -33.5024   -22.8492 C0            1 RES     
    1405 C0          41.2808   -33.5691   -21.8720 C0            1 RES     
    1406 C0          39.9228   -33.9576   -22.4394 C0            1 RES     
    1407 C0          38.8927   -33.7841   -21.3046 C0            1 RES     
    1408 C0          37.4375   -33.9831   -21.7325 C0            1 RES     
    1409 C0          36.9551   -32.8833   -22.6796 C0            1 RES     
    1410 H6          46.5097   -34.8337   -21.7823 H6            1 RES     
    1411 H6          47.5805   -34.3633   -23.0332 H6            1 RES     
    1412 H6          46.2688   -34.8420   -24.7708 H6            1 RES     
    1413 H6          45.2696   -36.7533   -22.5514 H6            1 RES     
    1414 H6          46.8974   -36.7584   -23.3127 H6            1 RES     
    1415 H6          45.8704   -37.3209   -25.5267 H6            1 RES     
    1416 H6          44.2424   -37.3720   -24.7616 H6            1 RES     
    1417 H6          45.0306   -39.6059   -25.0224 H6            1 RES     
    1418 H6          44.8209   -39.2005   -23.2973 H6            1 RES     
    1419 H6          46.8282   -40.5879   -23.6993 H6            1 RES     
    1420 H6          47.2424   -39.0154   -22.9558 H6            1 RES     
    1421 H6          48.0504   -38.1260   -25.1148 H6            1 RES     
    1422 H6          48.8727   -39.6500   -24.6480 H6            1 RES     
    1423 H6          46.5709   -39.3790   -26.6958 H6            1 RES     
    1424 H6          47.3749   -40.9287   -26.2580 H6            1 RES     
    1425 H6          48.1536   -39.9282   -28.4134 H6            1 RES     
    1426 H6          48.6984   -38.4482   -27.5439 H6            1 RES     
    1427 H6          50.3817   -39.8765   -26.2630 H6            1 RES     
    1428 H6          49.7201   -41.3356   -27.0859 H6            1 RES     
    1429 H6          50.4662   -40.4477   -29.2972 H6            1 RES     
    1430 H6          51.8124   -40.6737   -28.1241 H6            1 RES     
    1431 H6          50.5055   -37.9659   -28.8266 H6            1 RES     
    1432 H6          51.8212   -38.2320   -27.6100 H6            1 RES     
    1433 H6          52.1093   -38.5695   -29.3584 H6            1 RES     
    1434 H6          44.0262   -35.3359   -25.1618 H6            1 RES     
    1435 H6          44.1527   -33.7132   -24.8613 H6            1 RES     
    1436 H6          42.1567   -35.2653   -23.9726 H6            1 RES     
    1437 H6          43.2096   -35.5736   -22.5576 H6            1 RES     
    1438 H6          42.1800   -32.8399   -23.7050 H6            1 RES     
    1439 H6          43.2027   -33.0006   -22.2605 H6            1 RES     
    1440 H6          41.5529   -34.2080   -21.0039 H6            1 RES     
    1441 H6          41.1432   -32.5308   -21.5277 H6            1 RES     
    1442 H6          39.6971   -33.2681   -23.2802 H6            1 RES     
    1443 H6          39.9279   -35.0024   -22.8139 H6            1 RES     
    1444 H6          39.1348   -34.5180   -20.5046 H6            1 RES     
    1445 H6          38.9741   -32.7649   -20.8613 H6            1 RES     
    1446 H6          36.8127   -33.9295   -20.8140 H6            1 RES     
    1447 H6          37.3080   -34.9830   -22.1921 H6            1 RES     
    1448 H6          37.5095   -32.9025   -23.6388 H6            1 RES     
    1449 H6          35.8781   -33.0347   -22.8980 H6            1 RES     
    1450 H6          37.0806   -31.8849   -22.2060 H6            1 RES     
    1451 C0          58.1186   -28.1710   -25.5160 C0            1 RES     
    1452 C1          57.0436   -28.4788   -24.4505 C1            1 RES     
    1453 C1          57.5507   -28.4826   -23.1903 C1            1 RES     
    1454 S2          56.4312   -28.9037   -22.0191 S2            1 RES     
    1455 C1          55.2103   -29.1440   -23.1778 C1            1 RES     
    1456 C1          55.7014   -28.8935   -24.4638 C1            1 RES     
    1457 C1          58.9380   -28.2301   -23.2573 C1            1 RES     
    1458 C1          59.3130   -28.1338   -24.5615 C1            1 RES     
    1459 C1          60.6908   -28.0278   -24.7086 C1            1 RES     
    1460 C1          61.3226   -28.0126   -23.4537 C1            1 RES     
    1461 S2          60.2046   -28.1453   -22.1825 S2            1 RES     
    1462 H3          55.1018   -29.0643   -25.3376 H3            1 RES     
    1463 H3          61.2043   -27.9705   -25.6609 H3            1 RES     
    1464 N4          64.7466   -26.9613   -22.3486 N4            1 RES     
    1465 C1          63.4060   -26.9237   -22.6046 C1            1 RES     
    1466 C1          62.7613   -28.0143   -23.2134 C1            1 RES     
    1467 C1          63.5253   -29.1402   -23.5256 C1            1 RES     
    1468 N4          63.0172   -30.2796   -24.0614 N4            1 RES     
    1469 S2          64.3501   -31.2535   -24.1428 S2            1 RES     
    1470 N4          65.5660   -30.3109   -23.5335 N4            1 RES     
    1471 C1          64.9118   -29.1621   -23.2317 C1            1 RES     
    1472 C1          65.5116   -28.0474   -22.6516 C1            1 RES     
    1473 H5          62.8383   -26.0355   -22.3411 H5            1 RES     
    1474 C0          58.0664   -26.8120   -26.2992 C0            1 RES     
    1475 C0          58.3710   -25.3441   -25.8151 C0            1 RES     
    1476 C0          58.0113   -24.4277   -27.0370 C0            1 RES     
    1477 C0          58.2797   -22.9260   -26.8789 C0            1 RES     
    1478 C0          57.8404   -22.1175   -28.1224 C0            1 RES     
    1479 C0          58.5757   -22.4548   -29.4383 C0            1 RES     
    1480 C0          60.1095   -22.3520   -29.3681 C0            1 RES     
    1481 C0          60.6015   -20.9591   -28.9362 C0            1 RES     
    1482 C0          62.1296   -20.8753   -28.8128 C0            1 RES     
    1483 C0          62.8546   -21.0132   -30.1623 C0            1 RES     
    1484 C0          64.3739   -20.8134   -30.0430 C0            1 RES     
    1485 C0          65.0618   -21.9024   -29.2188 C0            1 RES     
    1486 C0          57.7380   -24.8225   -24.4838 C0            1 RES     
    1487 C0          56.1889   -24.6698   -24.3847 C0            1 RES     
    1488 C0          55.6763   -25.5479   -23.2392 C0            1 RES     
    1489 C0          54.1762   -25.8163   -23.1579 C0            1 RES     
    1490 C0          53.3227   -24.7118   -22.5520 C0            1 RES     
    1491 C0          51.8621   -25.2087   -22.5236 C0            1 RES     
    1492 C0          50.8993   -24.2905   -21.7672 C0            1 RES     
    1493 C0          51.1765   -24.2719   -20.2625 C0            1 RES     
    1494 H6          57.0949   -26.7475   -26.7183 H6            1 RES     
    1495 H6          58.7825   -26.9541   -27.1399 H6            1 RES     
    1496 H6          59.4692   -25.2879   -25.6436 H6            1 RES     
    1497 H6          56.9318   -24.5439   -27.2769 H6            1 RES     
    1498 H6          58.5903   -24.7897   -27.9135 H6            1 RES     
    1499 H6          59.3523   -22.7517   -26.6576 H6            1 RES     
    1500 H6          57.6811   -22.5355   -26.0314 H6            1 RES     
    1501 H6          57.9804   -21.0395   -27.9000 H6            1 RES     
    1502 H6          56.7505   -22.2653   -28.2899 H6            1 RES     
    1503 H6          58.2027   -21.7651   -30.2280 H6            1 RES     
    1504 H6          58.3122   -23.4847   -29.7611 H6            1 RES     
    1505 H6          60.4956   -23.1156   -28.6604 H6            1 RES     
    1506 H6          60.5027   -22.5960   -30.3769 H6            1 RES     
    1507 H6          60.1974   -20.7333   -27.9284 H6            1 RES     
    1508 H6          60.2327   -20.1834   -29.6426 H6            1 RES     
    1509 H6          62.3774   -19.8784   -28.3874 H6            1 RES     
    1510 H6          62.4697   -21.6533   -28.0974 H6            1 RES     
    1511 H6          62.6593   -22.0055   -30.6191 H6            1 RES     
    1512 H6          62.4631   -20.2289   -30.8462 H6            1 RES     
    1513 H6          64.5895   -19.8171   -29.5989 H6            1 RES     
    1514 H6          64.8065   -20.8361   -31.0664 H6            1 RES     
    1515 H6          64.7100   -21.8970   -28.1675 H6            1 RES     
    1516 H6          64.8696   -22.9005   -29.6668 H6            1 RES     
    1517 H6          66.1570   -21.7212   -29.2120 H6            1 RES     
    1518 H6          58.1715   -23.8210   -24.2758 H6            1 RES     
    1519 H6          58.1367   -25.4345   -23.6466 H6            1 RES     
    1520 H6          55.9092   -23.6149   -24.1657 H6            1 RES     
    1521 H6          55.7151   -24.9608   -25.3442 H6            1 RES     
    1522 H6          56.0891   -25.2406   -22.2553 H6            1 RES     
    1523 H6          56.0801   -26.5109   -23.4693 H6            1 RES     
    1524 H6          53.8094   -26.0981   -24.1479 H6            1 RES     
    1525 H6          54.0525   -26.7047   -22.4976 H6            1 RES     
    1526 H6          53.7000   -24.5327   -21.5229 H6            1 RES     
    1527 H6          53.3986   -23.7718   -23.1384 H6            1 RES     
    1528 H6          51.5122   -25.3071   -23.5763 H6            1 RES     
    1529 H6          51.8030   -26.2174   -22.0550 H6            1 RES     
    1530 H6          49.8706   -24.6890   -21.9096 H6            1 RES     
    1531 H6          50.9389   -23.2626   -22.1850 H6            1 RES     
    1532 H6          52.1749   -23.8474   -20.0383 H6            1 RES     
    1533 H6          50.4128   -23.6500   -19.7529 H6            1 RES     
    1534 H6          51.1199   -25.3042   -19.8504 H6            1 RES     
    1535 C0          58.1070   -29.4187   -26.4849 C0            1 RES     
    1536 C0          57.6289   -29.4096   -28.0073 C0            1 RES     
    1537 C0          57.2755   -30.8917   -28.3687 C0            1 RES     
    1538 C0          57.0425   -31.1750   -29.8665 C0            1 RES     
    1539 C0          56.6748   -32.6376   -30.1727 C0            1 RES     
    1540 C0          57.7216   -33.6896   -29.7648 C0            1 RES     
    1541 C0          59.1376   -33.4503   -30.3147 C0            1 RES     
    1542 C0          59.1919   -33.3661   -31.8503 C0            1 RES     
    1543 C0          60.6128   -33.1216   -32.3836 C0            1 RES     
    1544 C0          61.5604   -34.3074   -32.1286 C0            1 RES     
    1545 C0          62.9443   -34.1184   -32.7692 C0            1 RES     
    1546 C0          63.7392   -32.9639   -32.1589 C0            1 RES     
    1547 C0          56.5752   -28.4009   -28.6312 C0            1 RES     
    1548 C0          55.0719   -28.4314   -28.2348 C0            1 RES     
    1549 C0          54.6801   -27.2489   -27.3306 C0            1 RES     
    1550 C0          53.2445   -27.2186   -26.8327 C0            1 RES     
    1551 C0          52.1688   -26.8605   -27.8484 C0            1 RES     
    1552 C0          50.8423   -26.7257   -27.0730 C0            1 RES     
    1553 C0          49.6671   -26.2165   -27.9095 C0            1 RES     
    1554 C0          49.8517   -24.7623   -28.3457 C0            1 RES     
    1555 H6          57.5971   -30.2577   -25.9567 H6            1 RES     
    1556 H6          59.1481   -29.8112   -26.5291 H6            1 RES     
    1557 H6          58.5529   -29.1434   -28.5708 H6            1 RES     
    1558 H6          56.3665   -31.1957   -27.8059 H6            1 RES     
    1559 H6          58.1173   -31.5333   -28.0301 H6            1 RES     
    1560 H6          57.9446   -30.8774   -30.4411 H6            1 RES     
    1561 H6          56.1798   -30.5896   -30.2392 H6            1 RES     
    1562 H6          56.4907   -32.7180   -31.2654 H6            1 RES     
    1563 H6          55.7165   -32.8875   -29.6666 H6            1 RES     
    1564 H6          57.3588   -34.6824   -30.1103 H6            1 RES     
    1565 H6          57.7852   -33.7328   -28.6565 H6            1 RES     
    1566 H6          59.5507   -32.5140   -29.8824 H6            1 RES     
    1567 H6          59.7640   -34.2932   -29.9582 H6            1 RES     
    1568 H6          58.5727   -32.5077   -32.1849 H6            1 RES     
    1569 H6          58.7753   -34.2924   -32.3020 H6            1 RES     
    1570 H6          60.5379   -32.9681   -33.4822 H6            1 RES     
    1571 H6          61.0109   -32.1899   -31.9286 H6            1 RES     
    1572 H6          61.6946   -34.4832   -31.0414 H6            1 RES     
    1573 H6          61.1036   -35.2168   -32.5765 H6            1 RES     
    1574 H6          62.8341   -33.9586   -33.8638 H6            1 RES     
    1575 H6          63.5255   -35.0526   -32.6129 H6            1 RES     
    1576 H6          63.2344   -31.9917   -32.3295 H6            1 RES     
    1577 H6          63.8726   -33.1243   -31.0678 H6            1 RES     
    1578 H6          64.7410   -32.9169   -32.6352 H6            1 RES     
    1579 H6          56.5948   -28.6133   -29.7159 H6            1 RES     
    1580 H6          56.9493   -27.3617   -28.6925 H6            1 RES     
    1581 H6          54.4749   -28.2785   -29.1608 H6            1 RES     
    1582 H6          54.7914   -29.4198   -27.8180 H6            1 RES     
    1583 H6          54.9281   -26.2844   -27.8293 H6            1 RES     
    1584 H6          55.2387   -27.2973   -26.4025 H6            1 RES     
    1585 H6          53.0052   -28.1704   -26.3105 H6            1 RES     
    1586 H6          53.2166   -26.3903   -26.1057 H6            1 RES     
    1587 H6          52.4500   -25.8915   -28.3123 H6            1 RES     
    1588 H6          52.0888   -27.6355   -28.6390 H6            1 RES     
    1589 H6          50.5820   -27.7249   -26.6596 H6            1 RES     
    1590 H6          50.9669   -26.0283   -26.2127 H6            1 RES     
    1591 H6          48.7608   -26.2588   -27.2663 H6            1 RES     
    1592 H6          49.5103   -26.8738   -28.7876 H6            1 RES     
    1593 H6          50.7187   -24.6502   -29.0265 H6            1 RES     
    1594 H6          48.9424   -24.4229   -28.8829 H6            1 RES     
    1595 H6          49.9991   -24.1095   -27.4574 H6            1 RES     
    1596 C0          70.9018   -27.4642   -23.0791 C0            1 RES     
    1597 C1          69.4559   -27.7048   -22.5922 C1            1 RES     
    1598 C1          69.4133   -28.3295   -21.3868 C1            1 RES     
    1599 S2          67.8610   -28.6881   -20.8727 S2            1 RES     
    1600 C1          67.1725   -28.0478   -22.2894 C1            1 RES     
    1601 C1          68.1710   -27.5666   -23.1433 C1            1 RES     
    1602 C1          70.7340   -28.5964   -20.9656 C1            1 RES     
    1603 C1          71.6018   -28.1997   -21.9354 C1            1 RES     
    1604 C1          72.9130   -28.5621   -21.6514 C1            1 RES     
    1605 C1          72.9880   -29.2143   -20.4091 C1            1 RES     
    1606 S2          71.4617   -29.3589   -19.6789 S2            1 RES     
    1607 H3          67.9408   -27.1923   -24.1227 H3            1 RES     
    1608 H3          73.7578   -28.3714   -22.3024 H3            1 RES     
    1609 N4          75.8440   -29.9426   -18.0932 N4            1 RES     
    1610 C1          74.7560   -29.3304   -18.6461 C1            1 RES     
    1611 C1          74.1777   -29.8259   -19.8276 C1            1 RES     
    1612 C1          74.7328   -30.9705   -20.4026 C1            1 RES     
    1613 N4          74.2370   -31.5833   -21.5081 N4            1 RES     
    1614 S2          75.2431   -32.8848   -21.6684 S2            1 RES     
    1615 N4          76.2983   -32.7266   -20.4036 N4            1 RES     
    1616 C1          75.8504   -31.5990   -19.7983 C1            1 RES     
    1617 C1          76.4051   -31.0564   -18.6422 C1            1 RES     
    1618 H5          74.3426   -28.4463   -18.1687 H5            1 RES     
    1619 C0          71.4637   -26.0004   -23.1455 C0            1 RES     
    1620 C0          71.8708   -25.0113   -21.9889 C0            1 RES     
    1621 C0          72.2322   -23.6654   -22.7102 C0            1 RES     
    1622 C0          72.7425   -22.5211   -21.8256 C0            1 RES     
    1623 C0          73.0174   -21.2319   -22.6350 C0            1 RES     
    1624 C0          74.1154   -21.3376   -23.7162 C0            1 RES     
    1625 C0          75.4799   -21.8350   -23.2075 C0            1 RES     
    1626 C0          76.0582   -20.9613   -22.0801 C0            1 RES     
    1627 C0          77.3926   -21.4915   -21.5362 C0            1 RES     
    1628 C0          78.5387   -21.4096   -22.5585 C0            1 RES     
    1629 C0          79.8924   -21.8349   -21.9679 C0            1 RES     
    1630 C0          79.9419   -23.3125   -21.5777 C0            1 RES     
    1631 C0          70.8989   -24.7891   -20.7843 C0            1 RES     
    1632 C0          69.5110   -24.1240   -21.0372 C0            1 RES     
    1633 C0          68.4093   -25.0908   -20.5925 C0            1 RES     
    1634 C0          66.9788   -24.8011   -21.0382 C0            1 RES     
    1635 C0          66.2239   -23.7438   -20.2460 C0            1 RES     
    1636 C0          64.7986   -23.6478   -20.8297 C0            1 RES     
    1637 C0          63.8458   -22.7634   -20.0223 C0            1 RES     
    1638 C0          63.5070   -23.3691   -18.6586 C0            1 RES     
    1639 H6          70.7751   -25.4438   -23.7284 H6            1 RES     
    1640 H6          72.4013   -26.0948   -23.7385 H6            1 RES     
    1641 H6          72.7964   -25.4244   -21.5292 H6            1 RES     
    1642 H6          71.3368   -23.2873   -23.2504 H6            1 RES     
    1643 H6          73.0128   -23.8872   -23.4691 H6            1 RES     
    1644 H6          73.6518   -22.8400   -21.2767 H6            1 RES     
    1645 H6          71.9621   -22.2575   -21.0836 H6            1 RES     
    1646 H6          73.2939   -20.4288   -21.9209 H6            1 RES     
    1647 H6          72.0774   -20.9023   -23.1305 H6            1 RES     
    1648 H6          74.2451   -20.3321   -24.1752 H6            1 RES     
    1649 H6          73.7787   -22.0191   -24.5264 H6            1 RES     
    1650 H6          75.3777   -22.8808   -22.8485 H6            1 RES     
    1651 H6          76.1727   -21.8410   -24.0745 H6            1 RES     
    1652 H6          75.3520   -20.9667   -21.2250 H6            1 RES     
    1653 H6          76.1780   -19.9119   -22.4280 H6            1 RES     
    1654 H6          77.6677   -20.8682   -20.6575 H6            1 RES     
    1655 H6          77.2430   -22.5354   -21.1891 H6            1 RES     
    1656 H6          78.3237   -22.0373   -23.4481 H6            1 RES     
    1657 H6          78.6313   -20.3521   -22.8894 H6            1 RES     
    1658 H6          80.1314   -21.2067   -21.0821 H6            1 RES     
    1659 H6          80.6752   -21.6591   -22.7370 H6            1 RES     
    1660 H6          79.2165   -23.5425   -20.7714 H6            1 RES     
    1661 H6          79.7249   -23.9494   -22.4614 H6            1 RES     
    1662 H6          80.9571   -23.5596   -21.2025 H6            1 RES     
    1663 H6          71.4262   -24.1546   -20.0401 H6            1 RES     
    1664 H6          70.7908   -25.7533   -20.2429 H6            1 RES     
    1665 H6          69.4090   -23.1859   -20.4466 H6            1 RES     
    1666 H6          69.4000   -23.8700   -22.1109 H6            1 RES     
    1667 H6          68.4598   -25.3167   -19.5065 H6            1 RES     
    1668 H6          68.6468   -25.9910   -21.1184 H6            1 RES     
    1669 H6          66.9774   -24.5679   -22.1057 H6            1 RES     
    1670 H6          66.4124   -25.7515   -20.9097 H6            1 RES     
    1671 H6          66.1965   -24.0831   -19.1888 H6            1 RES     
    1672 H6          66.7299   -22.7568   -20.3006 H6            1 RES     
    1673 H6          64.8776   -23.2406   -21.8633 H6            1 RES     
    1674 H6          64.3385   -24.6595   -20.9022 H6            1 RES     
    1675 H6          62.8951   -22.6816   -20.5937 H6            1 RES     
    1676 H6          64.2728   -21.7454   -19.9029 H6            1 RES     
    1677 H6          64.4044   -23.4457   -18.0135 H6            1 RES     
    1678 H6          62.7631   -22.7283   -18.1432 H6            1 RES     
    1679 H6          63.0660   -24.3826   -18.7892 H6            1 RES     
    1680 C0          70.9952   -28.2028   -24.4725 C0            1 RES     
    1681 C0          71.1678   -27.4934   -25.8913 C0            1 RES     
    1682 C0          70.6657   -28.5193   -26.9627 C0            1 RES     
    1683 C0          70.9827   -28.1608   -28.4286 C0            1 RES     
    1684 C0          70.4506   -29.1837   -29.4478 C0            1 RES     
    1685 C0          70.9919   -30.6170   -29.3014 C0            1 RES     
    1686 C0          72.5248   -30.7388   -29.2904 C0            1 RES     
    1687 C0          73.1944   -30.1551   -30.5470 C0            1 RES     
    1688 C0          74.7263   -30.2801   -30.5181 C0            1 RES     
    1689 C0          75.2095   -31.7397   -30.5886 C0            1 RES     
    1690 C0          76.7382   -31.8619   -30.6860 C0            1 RES     
    1691 C0          77.4641   -31.3669   -29.4350 C0            1 RES     
    1692 C0          70.6954   -26.0203   -26.2432 C0            1 RES     
    1693 C0          69.1911   -25.6329   -26.3135 C0            1 RES     
    1694 C0          68.7486   -24.7805   -25.1107 C0            1 RES     
    1695 C0          67.2783   -24.4006   -25.0492 C0            1 RES     
    1696 C0          66.7958   -23.3459   -26.0352 C0            1 RES     
    1697 C0          65.3373   -23.0116   -25.6612 C0            1 RES     
    1698 C0          64.7292   -21.8520   -26.4522 C0            1 RES     
    1699 C0          65.3873   -20.5126   -26.1177 C0            1 RES     
    1700 H6          70.1469   -28.9234   -24.5356 H6            1 RES     
    1701 H6          71.8550   -28.9080   -24.4146 H6            1 RES     
    1702 H6          72.2727   -27.4071   -26.0089 H6            1 RES     
    1703 H6          69.5661   -28.6435   -26.8590 H6            1 RES     
    1704 H6          71.1423   -29.4990   -26.7435 H6            1 RES     
    1705 H6          72.0794   -28.0355   -28.5471 H6            1 RES     
    1706 H6          70.4884   -27.2102   -28.7078 H6            1 RES     
    1707 H6          70.6971   -28.8079   -30.4638 H6            1 RES     
    1708 H6          69.3410   -29.2234   -29.3809 H6            1 RES     
    1709 H6          70.5836   -31.2222   -30.1402 H6            1 RES     
    1710 H6          70.6042   -31.0607   -28.3596 H6            1 RES     
    1711 H6          72.9314   -30.2309   -28.3899 H6            1 RES     
    1712 H6          72.7573   -31.8197   -29.2035 H6            1 RES     
    1713 H6          72.9632   -29.0710   -30.6062 H6            1 RES     
    1714 H6          72.7945   -30.6464   -31.4602 H6            1 RES     
    1715 H6          75.1245   -29.7402   -31.4047 H6            1 RES     
    1716 H6          75.1096   -29.7784   -29.6042 H6            1 RES     
    1717 H6          74.8638   -32.3167   -29.7062 H6            1 RES     
    1718 H6          74.7759   -32.2031   -31.5016 H6            1 RES     
    1719 H6          77.1047   -31.3050   -31.5756 H6            1 RES     
    1720 H6          76.9887   -32.9360   -30.8230 H6            1 RES     
    1721 H6          77.2958   -30.2831   -29.2730 H6            1 RES     
    1722 H6          77.1196   -31.9316   -28.5425 H6            1 RES     
    1723 H6          78.5558   -31.5286   -29.5568 H6            1 RES     
    1724 H6          71.0914   -25.8359   -27.2587 H6            1 RES     
    1725 H6          71.2837   -25.2385   -25.7272 H6            1 RES     
    1726 H6          69.0554   -24.9620   -27.1903 H6            1 RES     
    1727 H6          68.5581   -26.5281   -26.4791 H6            1 RES     
    1728 H6          69.3792   -23.8658   -25.0343 H6            1 RES     
    1729 H6          68.8723   -25.3479   -24.1950 H6            1 RES     
    1730 H6          66.6489   -25.3157   -25.0975 H6            1 RES     
    1731 H6          67.1516   -23.9262   -24.0621 H6            1 RES     
    1732 H6          67.4436   -22.4515   -25.9184 H6            1 RES     
    1733 H6          66.8630   -23.7128   -27.0806 H6            1 RES     
    1734 H6          64.7213   -23.9224   -25.8292 H6            1 RES     
    1735 H6          65.2654   -22.7523   -24.5798 H6            1 RES     
    1736 H6          63.6583   -21.7789   -26.1609 H6            1 RES     
    1737 H6          64.7881   -22.0588   -27.5392 H6            1 RES     
    1738 H6          66.4533   -20.4980   -26.4198 H6            1 RES     
    1739 H6          64.8615   -19.7005   -26.6606 H6            1 RES     
    1740 H6          65.3150   -20.3098   -25.0265 H6            1 RES     
    1741 C0          81.5142   -32.3795   -17.3286 C0            1 RES     
    1742 C1          79.9790   -32.2259   -17.4018 C1            1 RES     
    1743 C1          79.3295   -33.1668   -16.6681 C1            1 RES     
    1744 S2          77.6626   -33.0856   -16.7995 S2            1 RES     
    1745 C1          77.7457   -31.7904   -17.8979 C1            1 RES     
    1746 C1          79.0788   -31.4453   -18.1460 C1            1 RES     
    1747 C1          80.2841   -34.0268   -16.0835 C1            1 RES     
    1748 C1          81.5273   -33.6668   -16.5029 C1            1 RES     
    1749 C1          82.5061   -34.5583   -16.0807 C1            1 RES     
    1750 C1          81.9411   -35.5787   -15.2973 C1            1 RES     
    1751 S2          80.2600   -35.3969   -15.1408 S2            1 RES     
    1752 H3          79.3404   -30.6990   -18.8719 H3            1 RES     
    1753 H3          83.5579   -34.4780   -16.3278 H3            1 RES     
    1754 N4          83.4206   -38.0549   -12.9036 N4            1 RES     
    1755 C1          82.8019   -36.9364   -13.3834 C1            1 RES     
    1756 C1          82.6395   -36.7440   -14.7663 C1            1 RES     
    1757 C1          83.1071   -37.7373   -15.6286 C1            1 RES     
    1758 N4          82.9625   -37.7028   -16.9782 N4            1 RES     
    1759 S2          83.6352   -39.1403   -17.4397 S2            1 RES     
    1760 N4          84.1159   -39.8276   -16.0132 N4            1 RES     
    1761 C1          83.7284   -38.8986   -15.1046 C1            1 RES     
    1762 C1          83.8902   -39.0328   -13.7282 C1            1 RES     
    1763 H5          82.4414   -36.1862   -12.6848 H5            1 RES     
    1764 C0          82.3661   -31.2978   -16.5756 C0            1 RES     
    1765 C0          82.4948   -30.9926   -15.0354 C0            1 RES     
    1766 C0          83.3987   -29.7129   -14.9465 C0            1 RES     
    1767 C0          83.7607   -29.2172   -13.5410 C0            1 RES     
    1768 C0          84.6093   -27.9243   -13.5754 C0            1 RES     
    1769 C0          85.9903   -28.0440   -14.2568 C0            1 RES     
    1770 C0          86.8986   -29.1495   -13.6902 C0            1 RES     
    1771 C0          87.1661   -28.9965   -12.1824 C0            1 RES     
    1772 C0          88.0264   -30.1314   -11.6085 C0            1 RES     
    1773 C0          89.4689   -30.1270   -12.1422 C0            1 RES     
    1774 C0          90.3514   -31.1946   -11.4760 C0            1 RES     
    1775 C0          89.9151   -32.6241   -11.7989 C0            1 RES     
    1776 C0          81.2037   -30.8610   -14.1631 C0            1 RES     
    1777 C0          80.2113   -29.6905   -14.4419 C0            1 RES     
    1778 C0          78.8391   -30.2758   -14.7893 C0            1 RES     
    1779 C0          77.8012   -29.3474   -15.4134 C0            1 RES     
    1780 C0          77.0506   -28.4314   -14.4579 C0            1 RES     
    1781 C0          76.0286   -27.6244   -15.2859 C0            1 RES     
    1782 C0          75.0571   -26.7906   -14.4475 C0            1 RES     
    1783 C0          74.0854   -27.6612   -13.6481 C0            1 RES     
    1784 H6          82.1034   -30.3632   -17.0012 H6            1 RES     
    1785 H6          83.4149   -31.5179   -16.8777 H6            1 RES     
    1786 H6          83.0492   -31.8474   -14.5876 H6            1 RES     
    1787 H6          82.8951   -28.8714   -15.4708 H6            1 RES     
    1788 H6          84.3441   -29.9280   -15.4889 H6            1 RES     
    1789 H6          84.2864   -30.0156   -12.9788 H6            1 RES     
    1790 H6          82.8312   -28.9601   -12.9940 H6            1 RES     
    1791 H6          84.7539   -27.5788   -12.5309 H6            1 RES     
    1792 H6          84.0375   -27.1239   -14.0953 H6            1 RES     
    1793 H6          86.5090   -27.0643   -14.1591 H6            1 RES     
    1794 H6          85.8566   -28.2293   -15.3440 H6            1 RES     
    1795 H6          86.4348   -30.1396   -13.8841 H6            1 RES     
    1796 H6          87.8559   -29.1088   -14.2502 H6            1 RES     
    1797 H6          86.1989   -29.0380   -11.6412 H6            1 RES     
    1798 H6          87.6421   -28.0135   -11.9727 H6            1 RES     
    1799 H6          88.0654   -29.9975   -10.5054 H6            1 RES     
    1800 H6          87.5255   -31.0984   -11.8242 H6            1 RES     
    1801 H6          89.4869   -30.2829   -13.2407 H6            1 RES     
    1802 H6          89.9157   -29.1331   -11.9215 H6            1 RES     
    1803 H6          90.3564   -31.0458   -10.3741 H6            1 RES     
    1804 H6          91.3910   -31.0636   -11.8466 H6            1 RES     
    1805 H6          88.9002   -32.8358   -11.4060 H6            1 RES     
    1806 H6          89.9271   -32.7892   -12.8973 H6            1 RES     
    1807 H6          90.6194   -33.3392   -11.3246 H6            1 RES     
    1808 H6          81.5231   -30.7634   -13.1035 H6            1 RES     
    1809 H6          80.6812   -31.8415   -14.1663 H6            1 RES     
    1810 H6          80.0964   -29.0470   -13.5409 H6            1 RES     
    1811 H6          80.5898   -29.0592   -15.2713 H6            1 RES     
    1812 H6          78.4081   -30.8650   -13.9526 H6            1 RES     
    1813 H6          79.0580   -30.9586   -15.5825 H6            1 RES     
    1814 H6          78.2705   -28.7763   -16.2182 H6            1 RES     
    1815 H6          77.0345   -30.0053   -15.8825 H6            1 RES     
    1816 H6          76.5362   -29.0800   -13.7175 H6            1 RES     
    1817 H6          77.7425   -27.7453   -13.9252 H6            1 RES     
    1818 H6          76.5948   -26.9443   -15.9619 H6            1 RES     
    1819 H6          75.4222   -28.3048   -15.9262 H6            1 RES     
    1820 H6          74.4507   -26.1740   -15.1471 H6            1 RES     
    1821 H6          75.6170   -26.1089   -13.7733 H6            1 RES     
    1822 H6          74.6164   -28.2792   -12.8975 H6            1 RES     
    1823 H6          73.3610   -27.0133   -13.1141 H6            1 RES     
    1824 H6          73.5184   -28.3300   -14.3337 H6            1 RES     
    1825 C0          81.9806   -32.5699   -18.8259 C0            1 RES     
    1826 C0          82.8486   -31.5298   -19.6690 C0            1 RES     
    1827 C0          82.5934   -31.8617   -21.1780 C0            1 RES     
    1828 C0          83.5310   -31.1612   -22.1822 C0            1 RES     
    1829 C0          83.2292   -31.4975   -23.6532 C0            1 RES     
    1830 C0          83.3375   -32.9846   -24.0349 C0            1 RES     
    1831 C0          84.6746   -33.6552   -23.6785 C0            1 RES     
    1832 C0          85.8948   -32.9618   -24.3097 C0            1 RES     
    1833 C0          87.2234   -33.6410   -23.9397 C0            1 RES     
    1834 C0          87.3590   -35.0546   -24.5334 C0            1 RES     
    1835 C0          88.7348   -35.6865   -24.2708 C0            1 RES     
    1836 C0          89.0016   -35.9574   -22.7900 C0            1 RES     
    1837 C0          82.8912   -29.9625   -19.4265 C0            1 RES     
    1838 C0          81.6617   -29.0525   -19.7058 C0            1 RES     
    1839 C0          80.9836   -28.5699   -18.4110 C0            1 RES     
    1840 C0          79.7311   -27.7243   -18.5724 C0            1 RES     
    1841 C0          79.9209   -26.2956   -19.0622 C0            1 RES     
    1842 C0          78.5462   -25.6017   -18.9749 C0            1 RES     
    1843 C0          78.5706   -24.1037   -19.2840 C0            1 RES     
    1844 C0          79.3236   -23.3034   -18.2202 C0            1 RES     
    1845 H6          81.0884   -32.8599   -19.4283 H6            1 RES     
    1846 H6          82.5692   -33.5142   -18.8700 H6            1 RES     
    1847 H6          83.9002   -31.8194   -19.4403 H6            1 RES     
    1848 H6          81.5436   -31.6019   -21.4343 H6            1 RES     
    1849 H6          82.7158   -32.9583   -21.3094 H6            1 RES     
    1850 H6          84.5843   -31.4138   -21.9387 H6            1 RES     
    1851 H6          83.4099   -30.0624   -22.1197 H6            1 RES     
    1852 H6          83.9313   -30.9119   -24.2845 H6            1 RES     
    1853 H6          82.2037   -31.1485   -23.9052 H6            1 RES     
    1854 H6          83.1681   -33.0678   -25.1308 H6            1 RES     
    1855 H6          82.5235   -33.5515   -23.5346 H6            1 RES     
    1856 H6          84.7968   -33.6768   -22.5744 H6            1 RES     
    1857 H6          84.6087   -34.7043   -24.0324 H6            1 RES     
    1858 H6          85.9518   -31.9202   -23.9305 H6            1 RES     
    1859 H6          85.7873   -32.9240   -25.4154 H6            1 RES     
    1860 H6          88.0463   -33.0140   -24.3467 H6            1 RES     
    1861 H6          87.3181   -33.6640   -22.8333 H6            1 RES     
    1862 H6          86.5763   -35.7314   -24.1331 H6            1 RES     
    1863 H6          87.2275   -34.9803   -25.6350 H6            1 RES     
    1864 H6          89.5345   -35.0321   -24.6809 H6            1 RES     
    1865 H6          88.7743   -36.6587   -24.8077 H6            1 RES     
    1866 H6          89.0280   -35.0155   -22.2058 H6            1 RES     
    1867 H6          88.2188   -36.6275   -22.3752 H6            1 RES     
    1868 H6          89.9882   -36.4549   -22.6807 H6            1 RES     
    1869 H6          83.6841   -29.5972   -20.1046 H6            1 RES     
    1870 H6          83.3872   -29.6811   -18.4785 H6            1 RES     
    1871 H6          82.0332   -28.1200   -20.1851 H6            1 RES     
    1872 H6          80.9633   -29.5366   -20.4180 H6            1 RES     
    1873 H6          81.7193   -28.0372   -17.7666 H6            1 RES     
    1874 H6          80.6090   -29.4219   -17.8547 H6            1 RES     
    1875 H6          78.9854   -28.2675   -19.1927 H6            1 RES     
    1876 H6          79.3358   -27.6094   -17.5497 H6            1 RES     
    1877 H6          80.6516   -25.8006   -18.3881 H6            1 RES     
    1878 H6          80.3098   -26.2756   -20.1016 H6            1 RES     
    1879 H6          77.8604   -26.1048   -19.6918 H6            1 RES     
    1880 H6          78.1151   -25.7253   -17.9546 H6            1 RES     
    1881 H6          77.5165   -23.7490   -19.2836 H6            1 RES     
    1882 H6          79.0038   -23.9281   -20.2886 H6            1 RES     
    1883 H6          80.3970   -23.5769   -18.1915 H6            1 RES     
    1884 H6          79.2472   -22.2216   -18.4535 H6            1 RES     
    1885 H6          78.8758   -23.4790   -17.2174 H6            1 RES     
    1886 C0          87.6426   -42.5017   -11.8668 C0            1 RES     
    1887 C1          86.3349   -41.7813   -12.2624 C1            1 RES     
    1888 C1          85.2588   -42.6098   -12.2332 C1            1 RES     
    1889 S2          83.8402   -41.8836   -12.7457 S2            1 RES     
    1890 C1          84.6323   -40.4154   -13.0741 C1            1 RES     
    1891 C1          85.9962   -40.5199   -12.7798 C1            1 RES     
    1892 C1          85.6910   -43.9046   -11.8735 C1            1 RES     
    1893 C1          87.0451   -43.9041   -11.7419 C1            1 RES     
    1894 C1          87.5558   -45.1788   -11.5287 C1            1 RES     
    1895 C1          86.5179   -46.1242   -11.4708 C1            1 RES     
    1896 S2          84.9961   -45.4054   -11.6962 S2            1 RES     
    1897 H3          86.6799   -39.7201   -12.9922 H3            1 RES     
    1898 H3          88.6095   -45.4094   -11.4270 H3            1 RES     
    1899 N4          86.3509   -49.6329   -10.1627 N4            1 RES     
    1900 C1          86.2346   -48.2741   -10.2278 C1            1 RES     
    1901 C1          86.6748   -47.5702   -11.3621 C1            1 RES     
    1902 C1          87.2106   -48.3014   -12.4238 C1            1 RES     
    1903 N4          87.6187   -47.7520   -13.5965 N4            1 RES     
    1904 S2          88.0818   -49.0807   -14.4637 S2            1 RES     
    1905 N4          87.7990   -50.3437   -13.4326 N4            1 RES     
    1906 C1          87.3023   -49.7135   -12.3396 C1            1 RES     
    1907 C1          86.8770   -50.3646   -11.1847 C1            1 RES     
    1908 H5          85.8049   -47.7355    -9.3877 H5            1 RES     
    1909 C0          88.3473   -42.1398   -10.5121 C0            1 RES     
    1910 C0          87.9256   -42.4558    -9.0274 C0            1 RES     
    1911 C0          88.9811   -41.7122    -8.1356 C0            1 RES     
    1912 C0          88.8626   -41.9026    -6.6184 C0            1 RES     
    1913 C0          89.9201   -41.0847    -5.8402 C0            1 RES     
    1914 C0          91.3938   -41.4585    -6.1128 C0            1 RES     
    1915 C0          91.7375   -42.9421    -5.8917 C0            1 RES     
    1916 C0          91.4185   -43.4293    -4.4671 C0            1 RES     
    1917 C0          91.7099   -44.9233    -4.2657 C0            1 RES     
    1918 C0          93.2080   -45.2635    -4.3402 C0            1 RES     
    1919 C0          93.4980   -46.7393    -4.0238 C0            1 RES     
    1920 C0          92.9184   -47.7027    -5.0603 C0            1 RES     
    1921 C0          86.4599   -42.1707    -8.5632 C0            1 RES     
    1922 C0          85.9426   -40.6996    -8.5315 C0            1 RES     
    1923 C0          84.7243   -40.5824    -9.4525 C0            1 RES     
    1924 C0          84.2482   -39.1844    -9.8367 C0            1 RES     
    1925 C0          83.4062   -38.4485    -8.8048 C0            1 RES     
    1926 C0          82.9976   -37.0907    -9.4136 C0            1 RES     
    1927 C0          81.9860   -36.3043    -8.5766 C0            1 RES     
    1928 C0          80.6120   -36.9768    -8.5441 C0            1 RES     
    1929 H6          88.4869   -41.0890   -10.5210 H6            1 RES     
    1930 H6          89.3534   -42.6097   -10.5940 H6            1 RES     
    1931 H6          88.0554   -43.5522    -8.8871 H6            1 RES     
    1932 H6          88.9237   -40.6196    -8.3339 H6            1 RES     
    1933 H6          89.9903   -42.0569    -8.4472 H6            1 RES     
    1934 H6          88.9345   -42.9793    -6.3625 H6            1 RES     
    1935 H6          87.8751   -41.5292    -6.2797 H6            1 RES     
    1936 H6          89.7159   -41.2004    -4.7557 H6            1 RES     
    1937 H6          89.7910   -40.0041    -6.0711 H6            1 RES     
    1938 H6          92.0355   -40.8360    -5.4502 H6            1 RES     
    1939 H6          91.6600   -41.1937    -7.1584 H6            1 RES     
    1940 H6          91.1801   -43.5605    -6.6266 H6            1 RES     
    1941 H6          92.8208   -43.0641    -6.0995 H6            1 RES     
    1942 H6          90.3335   -43.2980    -4.2783 H6            1 RES     
    1943 H6          91.9789   -42.8271    -3.7188 H6            1 RES     
    1944 H6          91.3415   -45.2033    -3.2547 H6            1 RES     
    1945 H6          91.1331   -45.5006    -5.0185 H6            1 RES     
    1946 H6          93.6206   -45.0250    -5.3423 H6            1 RES     
    1947 H6          93.7405   -44.6449    -3.5852 H6            1 RES     
    1948 H6          93.1030   -46.9936    -3.0160 H6            1 RES     
    1949 H6          94.6004   -46.8789    -4.0077 H6            1 RES     
    1950 H6          91.8113   -47.6496    -5.0874 H6            1 RES     
    1951 H6          93.3235   -47.4700    -6.0680 H6            1 RES     
    1952 H6          93.2026   -48.7425    -4.7947 H6            1 RES     
    1953 H6          86.3508   -42.5698    -7.5320 H6            1 RES     
    1954 H6          85.7774   -42.8252    -9.1465 H6            1 RES     
    1955 H6          85.6291   -40.4132    -7.5026 H6            1 RES     
    1956 H6          86.7458   -40.0062    -8.8536 H6            1 RES     
    1957 H6          83.8807   -41.2228    -9.1190 H6            1 RES     
    1958 H6          85.0796   -40.9782   -10.3800 H6            1 RES     
    1959 H6          85.1095   -38.5847   -10.1412 H6            1 RES     
    1960 H6          83.6022   -39.3097   -10.7353 H6            1 RES     
    1961 H6          82.5128   -39.0764    -8.6021 H6            1 RES     
    1962 H6          83.9669   -38.2935    -7.8588 H6            1 RES     
    1963 H6          83.9190   -36.4768    -9.5335 H6            1 RES     
    1964 H6          82.5566   -37.2349   -10.4262 H6            1 RES     
    1965 H6          81.8558   -35.3077    -9.0530 H6            1 RES     
    1966 H6          82.3724   -36.1538    -7.5466 H6            1 RES     
    1967 H6          80.6546   -37.9647    -8.0446 H6            1 RES     
    1968 H6          79.8993   -36.3364    -7.9859 H6            1 RES     
    1969 H6          80.2267   -37.1098    -9.5797 H6            1 RES     
    1970 C0          88.6043   -42.3195   -13.1068 C0            1 RES     
    1971 C0          89.9404   -41.4474   -13.1271 C0            1 RES     
    1972 C0          90.2312   -41.1188   -14.6304 C0            1 RES     
    1973 C0          91.6175   -40.5101   -14.9234 C0            1 RES     
    1974 C0          91.8508   -40.1814   -16.4086 C0            1 RES     
    1975 C0          91.7677   -41.3737   -17.3783 C0            1 RES     
    1976 C0          92.6729   -42.5661   -17.0271 C0            1 RES     
    1977 C0          94.1635   -42.1959   -16.9313 C0            1 RES     
    1978 C0          95.0539   -43.3973   -16.5747 C0            1 RES     
    1979 C0          95.0947   -44.4628   -17.6847 C0            1 RES     
    1980 C0          96.0799   -45.6035   -17.3857 C0            1 RES     
    1981 C0          95.6771   -46.4472   -16.1762 C0            1 RES     
    1982 C0          90.2306   -40.1930   -12.2002 C0            1 RES     
    1983 C0          89.4442   -38.8598   -12.3490 C0            1 RES     
    1984 C0          88.4377   -38.6422   -11.2050 C0            1 RES     
    1985 C0          87.5703   -37.3971   -11.2887 C0            1 RES     
    1986 C0          88.2484   -36.0630   -11.0100 C0            1 RES     
    1987 C0          87.1406   -34.9902   -10.9823 C0            1 RES     
    1988 C0          87.6156   -33.5982   -10.5616 C0            1 RES     
    1989 C0          88.0477   -33.5506    -9.0953 C0            1 RES     
    1990 H6          87.9799   -42.0347   -13.9854 H6            1 RES     
    1991 H6          88.9379   -43.3355   -13.4172 H6            1 RES     
    1992 H6          90.7253   -42.1619   -12.7873 H6            1 RES     
    1993 H6          89.4521   -40.4212   -15.0068 H6            1 RES     
    1994 H6          90.1491   -42.0656   -15.2064 H6            1 RES     
    1995 H6          92.4063   -41.1984   -14.5539 H6            1 RES     
    1996 H6          91.7283   -39.5381   -14.4049 H6            1 RES     
    1997 H6          92.8549   -39.7144   -16.4975 H6            1 RES     
    1998 H6          91.1114   -39.4170   -16.7345 H6            1 RES     
    1999 H6          92.0280   -41.0046   -18.3944 H6            1 RES     
    2000 H6          90.7191   -41.7382   -17.4219 H6            1 RES     
    2001 H6          92.3441   -43.0112   -16.0638 H6            1 RES     
    2002 H6          92.5205   -43.3258   -17.8207 H6            1 RES     
    2003 H6          94.2964   -41.4481   -16.1218 H6            1 RES     
    2004 H6          94.5098   -41.7416   -17.8848 H6            1 RES     
    2005 H6          96.0872   -43.0164   -16.4220 H6            1 RES     
    2006 H6          94.6993   -43.8344   -15.6172 H6            1 RES     
    2007 H6          94.0890   -44.8991   -17.8550 H6            1 RES     
    2008 H6          95.4261   -43.9696   -18.6245 H6            1 RES     
    2009 H6          97.0997   -45.1894   -17.2295 H6            1 RES     
    2010 H6          96.1104   -46.2722   -18.2729 H6            1 RES     
    2011 H6          95.6801   -45.8453   -15.2452 H6            1 RES     
    2012 H6          94.6670   -46.8828   -16.3311 H6            1 RES     
    2013 H6          96.4047   -47.2763   -16.0492 H6            1 RES     
    2014 H6          91.2855   -39.9334   -12.4049 H6            1 RES     
    2015 H6          90.3637   -40.4593   -11.1348 H6            1 RES     
    2016 H6          90.1706   -38.0247   -12.2383 H6            1 RES     
    2017 H6          88.9929   -38.7760   -13.3584 H6            1 RES     
    2018 H6          88.9597   -38.6744   -10.2218 H6            1 RES     
    2019 H6          87.6963   -39.4333   -11.2146 H6            1 RES     
    2020 H6          87.0276   -37.3787   -12.2587 H6            1 RES     
    2021 H6          86.8416   -37.5066   -10.4687 H6            1 RES     
    2022 H6          88.7459   -36.1362   -10.0198 H6            1 RES     
    2023 H6          89.0078   -35.8289   -11.7848 H6            1 RES     
    2024 H6          86.6983   -34.9257   -12.0008 H6            1 RES     
    2025 H6          86.3281   -35.2918   -10.2817 H6            1 RES     
    2026 H6          86.7530   -32.9058   -10.6773 H6            1 RES     
    2027 H6          88.4355   -33.2579   -11.2247 H6            1 RES     
    2028 H6          88.9341   -34.1901    -8.9129 H6            1 RES     
    2029 H6          88.3107   -32.5074    -8.8248 H6            1 RES     
    2030 H6          87.2156   -33.8850    -8.4375 H6            1 RES     
    2031 C0          88.7279   -55.3795   -10.1831 C0            1 RES     
    2032 C1          87.8753   -54.1413   -10.5375 C1            1 RES     
    2033 C1          86.7196   -54.4729   -11.1697 C1            1 RES     
    2034 S2          85.8152   -53.1486   -11.6501 S2            1 RES     
    2035 C1          86.9765   -52.0570   -11.0581 C1            1 RES     
    2036 C1          88.0555   -52.7486   -10.4966 C1            1 RES     
    2037 C1          86.6775   -55.8741   -11.3355 C1            1 RES     
    2038 C1          87.8349   -56.4152   -10.8679 C1            1 RES     
    2039 C1          87.9246   -57.7772   -11.1288 C1            1 RES     
    2040 C1          86.7659   -58.2336   -11.7795 C1            1 RES     
    2041 S2          85.6550   -56.9772   -12.0456 S2            1 RES     
    2042 H3          88.9264   -52.2348   -10.1364 H3            1 RES     
    2043 H3          88.7743   -58.3976   -10.8700 H3            1 RES     
    2044 N4          85.3262   -61.6557   -12.2957 N4            1 RES     
    2045 C1          85.5490   -60.4168   -11.7670 C1            1 RES     
    2046 C1          86.5430   -59.5778   -12.2999 C1            1 RES     
    2047 C1          87.2758   -60.0387   -13.3951 C1            1 RES     
    2048 N4          88.2220   -59.3081   -14.0390 N4            1 RES     
    2049 S2          88.6814   -60.3257   -15.2578 S2            1 RES     
    2050 N4          87.7445   -61.6697   -15.0246 N4            1 RES     
    2051 C1          87.0119   -61.3212   -13.9381 C1            1 RES     
    2052 C1          86.0347   -62.1272   -13.3599 C1            1 RES     
    2053 H5          84.9550   -60.0846   -10.9200 H5            1 RES     
    2054 C0          88.9056   -55.7934    -8.6798 C0            1 RES     
    2055 C0          87.8766   -56.4252    -7.6680 C0            1 RES     
    2056 C0          88.6337   -56.4779    -6.2945 C0            1 RES     
    2057 C0          87.8904   -57.1236    -5.1185 C0            1 RES     
    2058 C0          88.7103   -57.0735    -3.8078 C0            1 RES     
    2059 C0          90.0501   -57.8421    -3.8226 C0            1 RES     
    2060 C0          89.9414   -59.3261    -4.2152 C0            1 RES     
    2061 C0          88.9897   -60.1226    -3.3051 C0            1 RES     
    2062 C0          88.8399   -61.5896    -3.7328 C0            1 RES     
    2063 C0          90.1311   -62.4065    -3.5572 C0            1 RES     
    2064 C0          89.9388   -63.8971    -3.8792 C0            1 RES     
    2065 C0          89.6147   -64.1586    -5.3505 C0            1 RES     
    2066 C0          86.4491   -55.8025    -7.5278 C0            1 RES     
    2067 C0          86.3009   -54.3531    -6.9710 C0            1 RES     
    2068 C0          85.6006   -53.4871    -8.0226 C0            1 RES     
    2069 C0          85.6361   -51.9722    -7.8425 C0            1 RES     
    2070 C0          84.6425   -51.3848    -6.8509 C0            1 RES     
    2071 C0          84.8174   -49.8516    -6.8627 C0            1 RES     
    2072 C0          83.7602   -49.0911    -6.0589 C0            1 RES     
    2073 C0          82.3718   -49.1799    -6.6959 C0            1 RES     
    2074 H6          89.2665   -54.9338    -8.1754 H6            1 RES     
    2075 H6          89.7319   -56.5396    -8.6983 H6            1 RES     
    2076 H6          87.6945   -57.4684    -8.0103 H6            1 RES     
    2077 H6          88.9023   -55.4444    -5.9842 H6            1 RES     
    2078 H6          89.5805   -57.0377    -6.4513 H6            1 RES     
    2079 H6          87.6156   -58.1685    -5.3687 H6            1 RES     
    2080 H6          86.9587   -56.5563    -4.9200 H6            1 RES     
    2081 H6          88.0769   -57.4736    -2.9893 H6            1 RES     
    2082 H6          88.9252   -56.0129    -3.5496 H6            1 RES     
    2083 H6          90.5009   -57.7685    -2.8078 H6            1 RES     
    2084 H6          90.7567   -57.3493    -4.5242 H6            1 RES     
    2085 H6          89.5952   -59.4019    -5.2676 H6            1 RES     
    2086 H6          90.9631   -59.7564    -4.1632 H6            1 RES     
    2087 H6          87.9762   -59.6770    -3.3694 H6            1 RES     
    2088 H6          89.3298   -60.0664    -2.2478 H6            1 RES     
    2089 H6          88.0523   -62.0461    -3.0945 H6            1 RES     
    2090 H6          88.4924   -61.6166    -4.7870 H6            1 RES     
    2091 H6          90.9455   -62.0051    -4.1952 H6            1 RES     
    2092 H6          90.4473   -62.3283    -2.4941 H6            1 RES     
    2093 H6          89.1345   -64.3205    -3.2388 H6            1 RES     
    2094 H6          90.8858   -64.4271    -3.6394 H6            1 RES     
    2095 H6          88.6488   -63.6978    -5.6400 H6            1 RES     
    2096 H6          90.4233   -63.7575    -5.9979 H6            1 RES     
    2097 H6          89.5339   -65.2527    -5.5200 H6            1 RES     
    2098 H6          85.8587   -56.4638    -6.8581 H6            1 RES     
    2099 H6          85.9238   -55.9162    -8.5002 H6            1 RES     
    2100 H6          85.6807   -54.3466    -6.0467 H6            1 RES     
    2101 H6          87.2979   -53.9370    -6.7211 H6            1 RES     
    2102 H6          84.5747   -53.8465    -8.2494 H6            1 RES     
    2103 H6          86.1941   -53.6385    -8.8990 H6            1 RES     
    2104 H6          86.6573   -51.6644    -7.6048 H6            1 RES     
    2105 H6          85.3842   -51.5330    -8.8346 H6            1 RES     
    2106 H6          83.6263   -51.6699    -7.1966 H6            1 RES     
    2107 H6          84.8062   -51.7834    -5.8274 H6            1 RES     
    2108 H6          85.8231   -49.6175    -6.4455 H6            1 RES     
    2109 H6          84.7892   -49.4645    -7.9067 H6            1 RES     
    2110 H6          84.0517   -48.0178    -6.0483 H6            1 RES     
    2111 H6          83.7343   -49.4587    -5.0116 H6            1 RES     
    2112 H6          81.9950   -50.2216    -6.7059 H6            1 RES     
    2113 H6          81.6585   -48.5586    -6.1174 H6            1 RES     
    2114 H6          82.4047   -48.7956    -7.7399 H6            1 RES     
    2115 C0          90.1134   -55.1456   -10.9052 C0            1 RES     
    2116 C0          91.5074   -54.8747   -10.1775 C0            1 RES     
    2117 C0          92.4296   -54.1777   -11.2339 C0            1 RES     
    2118 C0          93.9170   -54.0584   -10.8446 C0            1 RES     
    2119 C0          94.7808   -53.3464   -11.9005 C0            1 RES     
    2120 C0          94.8229   -54.0107   -13.2883 C0            1 RES     
    2121 C0          95.2291   -55.4938   -13.2909 C0            1 RES     
    2122 C0          96.6042   -55.7532   -12.6507 C0            1 RES     
    2123 C0          96.9930   -57.2405   -12.6567 C0            1 RES     
    2124 C0          97.2289   -57.7921   -14.0741 C0            1 RES     
    2125 C0          97.7384   -59.2419   -14.0769 C0            1 RES     
    2126 C0          96.7172   -60.2413   -13.5333 C0            1 RES     
    2127 C0          91.6806   -54.2180    -8.7438 C0            1 RES     
    2128 C0          91.3324   -52.7267    -8.4738 C0            1 RES     
    2129 C0          90.0331   -52.5655    -7.6644 C0            1 RES     
    2130 C0          89.5675   -51.1432    -7.3999 C0            1 RES     
    2131 C0          90.3591   -50.3357    -6.3809 C0            1 RES     
    2132 C0          89.5969   -49.0126    -6.1626 C0            1 RES     
    2133 C0          90.1643   -48.1296    -5.0496 C0            1 RES     
    2134 C0          89.9853   -48.7538    -3.6649 C0            1 RES     
    2135 H6          89.9638   -54.3671   -11.6892 H6            1 RES     
    2136 H6          90.3078   -56.0382   -11.5420 H6            1 RES     
    2137 H6          91.9164   -55.8970   -10.0052 H6            1 RES     
    2138 H6          92.0363   -53.1595   -11.4435 H6            1 RES     
    2139 H6          92.3725   -54.7663   -12.1747 H6            1 RES     
    2140 H6          94.3237   -55.0697   -10.6340 H6            1 RES     
    2141 H6          94.0278   -53.4386    -9.9337 H6            1 RES     
    2142 H6          95.8156   -53.2801   -11.5016 H6            1 RES     
    2143 H6          94.4180   -52.3026   -12.0265 H6            1 RES     
    2144 H6          95.5358   -53.4359   -13.9191 H6            1 RES     
    2145 H6          93.8233   -53.9263   -13.7654 H6            1 RES     
    2146 H6          94.4589   -56.0909   -12.7574 H6            1 RES     
    2147 H6          95.2361   -55.8198   -14.3510 H6            1 RES     
    2148 H6          96.5709   -55.4357   -11.5876 H6            1 RES     
    2149 H6          97.3881   -55.1579   -13.1670 H6            1 RES     
    2150 H6          97.9399   -57.3428   -12.0831 H6            1 RES     
    2151 H6          96.2039   -57.8193   -12.1313 H6            1 RES     
    2152 H6          96.3012   -57.7417   -14.6805 H6            1 RES     
    2153 H6          98.0028   -57.1625   -14.5651 H6            1 RES     
    2154 H6          98.6792   -59.3117   -13.4888 H6            1 RES     
    2155 H6          97.9656   -59.5239   -15.1276 H6            1 RES     
    2156 H6          96.4880   -60.0443   -12.4667 H6            1 RES     
    2157 H6          95.7798   -60.1939   -14.1275 H6            1 RES     
    2158 H6          97.1333   -61.2679   -13.6093 H6            1 RES     
    2159 H6          92.7601   -54.3094    -8.5241 H6            1 RES     
    2160 H6          91.3224   -54.8652    -7.9213 H6            1 RES     
    2161 H6          92.1224   -52.3097    -7.8111 H6            1 RES     
    2162 H6          91.3441   -52.1400    -9.4146 H6            1 RES     
    2163 H6          90.1062   -53.1245    -6.7039 H6            1 RES     
    2164 H6          89.1997   -52.9740    -8.2250 H6            1 RES     
    2165 H6          89.4677   -50.5931    -8.3608 H6            1 RES     
    2166 H6          88.5709   -51.2544    -6.9417 H6            1 RES     
    2167 H6          90.3984   -50.9235    -5.4395 H6            1 RES     
    2168 H6          91.3929   -50.1437    -6.7362 H6            1 RES     
    2169 H6          89.6160   -48.4426    -7.1175 H6            1 RES     
    2170 H6          88.5299   -49.2177    -5.9150 H6            1 RES     
    2171 H6          89.5930   -47.1754    -5.0613 H6            1 RES     
    2172 H6          91.2318   -47.9067    -5.2458 H6            1 RES     
    2173 H6          90.5633   -49.6939    -3.5662 H6            1 RES     
    2174 H6          90.3450   -48.0425    -2.8934 H6            1 RES     
    2175 H6          88.9102   -48.9652    -3.4738 H6            1 RES     
    2176 C0          86.1830   -67.4837   -14.2894 C0            1 RES     
    2177 C1          85.8352   -65.9792   -14.2550 C1            1 RES     
    2178 C1          84.9781   -65.6236   -15.2470 C1            1 RES     
    2179 S2          84.6527   -63.9822   -15.2946 S2            1 RES     
    2180 C1          85.6990   -63.6694   -13.9915 C1            1 RES     
    2181 C1          86.2886   -64.8562   -13.5428 C1            1 RES     
    2182 C1          84.6951   -66.7613   -16.0333 C1            1 RES     
    2183 C1          85.4250   -67.8144   -15.5759 C1            1 RES     
    2184 C1          85.3058   -68.9336   -16.3910 C1            1 RES     
    2185 C1          84.4255   -68.6784   -17.4560 C1            1 RES     
    2186 S2          83.8166   -67.0941   -17.4059 S2            1 RES     
    2187 H3          87.0386   -64.8560   -12.7748 H3            1 RES     
    2188 H3          85.8253   -69.8703   -16.2281 H3            1 RES     
    2189 N4          82.5846   -70.9287   -19.8220 N4            1 RES     
    2190 C1          82.8506   -70.1228   -18.7524 C1            1 RES     
    2191 C1          84.1329   -69.5780   -18.5663 C1            1 RES     
    2192 C1          85.1148   -69.8659   -19.5160 C1            1 RES     
    2193 N4          86.3739   -69.3589   -19.4861 N4            1 RES     
    2194 S2          87.0368   -69.9848   -20.8647 S2            1 RES     
    2195 N4          85.8112   -70.8832   -21.5198 N4            1 RES     
    2196 C1          84.8080   -70.6894   -20.6283 C1            1 RES     
    2197 C1          83.5303   -71.2276   -20.7564 C1            1 RES     
    2198 H5          82.0616   -69.9112   -18.0360 H5            1 RES     
    2199 C0          85.6601   -68.4261   -13.1487 C0            1 RES     
    2200 C0          84.2045   -68.9448   -12.8421 C0            1 RES     
    2201 C0          84.3297   -69.7425   -11.4966 C0            1 RES     
    2202 C0          83.0617   -70.4346   -10.9814 C0            1 RES     
    2203 C0          83.2905   -71.1449    -9.6265 C0            1 RES     
    2204 C0          84.3221   -72.2946    -9.6353 C0            1 RES     
    2205 C0          84.0503   -73.4009   -10.6698 C0            1 RES     
    2206 C0          82.6671   -74.0550   -10.5041 C0            1 RES     
    2207 C0          82.3762   -75.1195   -11.5717 C0            1 RES     
    2208 C0          83.2790   -76.3590   -11.4529 C0            1 RES     
    2209 C0          82.9034   -77.4648   -12.4521 C0            1 RES     
    2210 C0          83.1334   -77.0633   -13.9095 C0            1 RES     
    2211 C0          83.0131   -67.9323   -12.8154 C0            1 RES     
    2212 C0          82.9834   -66.8185   -11.7240 C0            1 RES     
    2213 C0          82.9627   -65.4503   -12.4122 C0            1 RES     
    2214 C0          83.2594   -64.2168   -11.5640 C0            1 RES     
    2215 C0          82.1135   -63.6883   -10.7137 C0            1 RES     
    2216 C0          82.6139   -62.4239    -9.9843 C0            1 RES     
    2217 C0          81.5232   -61.6575    -9.2325 C0            1 RES     
    2218 C0          80.5141   -61.0053   -10.1799 C0            1 RES     
    2219 H6          85.9748   -67.9901   -12.2351 H6            1 RES     
    2220 H6          86.2397   -69.3670   -13.2852 H6            1 RES     
    2221 H6          83.9451   -69.6608   -13.6536 H6            1 RES     
    2222 H6          84.6768   -69.0555   -10.6941 H6            1 RES     
    2223 H6          85.1125   -70.5188   -11.6351 H6            1 RES     
    2224 H6          82.6831   -71.1500   -11.7395 H6            1 RES     
    2225 H6          82.2778   -69.6719   -10.7999 H6            1 RES     
    2226 H6          82.3152   -71.5415    -9.2760 H6            1 RES     
    2227 H6          83.6159   -70.3967    -8.8702 H6            1 RES     
    2228 H6          84.3426   -72.7470    -8.6188 H6            1 RES     
    2229 H6          85.3373   -71.8852    -9.8250 H6            1 RES     
    2230 H6          84.1374   -72.9758   -11.6920 H6            1 RES     
    2231 H6          84.8466   -74.1650   -10.5522 H6            1 RES     
    2232 H6          81.8863   -73.2765   -10.6232 H6            1 RES     
    2233 H6          82.5683   -74.4967    -9.4883 H6            1 RES     
    2234 H6          81.3214   -75.4460   -11.4408 H6            1 RES     
    2235 H6          82.4736   -74.6511   -12.5736 H6            1 RES     
    2236 H6          84.3453   -76.0900   -11.6014 H6            1 RES     
    2237 H6          83.1614   -76.7748   -10.4284 H6            1 RES     
    2238 H6          81.8403   -77.7573   -12.3089 H6            1 RES     
    2239 H6          83.5373   -78.3525   -12.2390 H6            1 RES     
    2240 H6          82.4869   -76.2112   -14.2012 H6            1 RES     
    2241 H6          84.1982   -76.7892   -14.0677 H6            1 RES     
    2242 H6          82.8854   -77.9202   -14.5702 H6            1 RES     
    2243 H6          82.0768   -68.5189   -12.6987 H6            1 RES     
    2244 H6          82.9005   -67.5018   -13.8335 H6            1 RES     
    2245 H6          82.0685   -66.9052   -11.0959 H6            1 RES     
    2246 H6          83.8676   -66.9107   -11.0611 H6            1 RES     
    2247 H6          82.0563   -65.3065   -13.0372 H6            1 RES     
    2248 H6          83.8029   -65.4954   -13.0720 H6            1 RES     
    2249 H6          84.1459   -64.4073   -10.9542 H6            1 RES     
    2250 H6          83.5211   -63.4021   -12.2770 H6            1 RES     
    2251 H6          81.2788   -63.4428   -11.4040 H6            1 RES     
    2252 H6          81.7697   -64.4464    -9.9787 H6            1 RES     
    2253 H6          83.3998   -62.7342    -9.2589 H6            1 RES     
    2254 H6          83.0841   -61.7181   -10.7064 H6            1 RES     
    2255 H6          82.0171   -60.8407    -8.6613 H6            1 RES     
    2256 H6          81.0077   -62.3277    -8.5129 H6            1 RES     
    2257 H6          79.9508   -61.7637   -10.7585 H6            1 RES     
    2258 H6          79.7879   -60.4073    -9.5928 H6            1 RES     
    2259 H6          81.0382   -60.3244   -10.8872 H6            1 RES     
    2260 C0          87.7550   -67.5396   -14.4356 C0            1 RES     
    2261 C0          88.7740   -68.0679   -13.3271 C0            1 RES     
    2262 C0          90.1662   -67.4383   -13.6702 C0            1 RES     
    2263 C0          91.3676   -68.0148   -12.8941 C0            1 RES     
    2264 C0          92.7109   -67.3511   -13.2454 C0            1 RES     
    2265 C0          93.1458   -67.4606   -14.7178 C0            1 RES     
    2266 C0          93.1809   -68.8896   -15.2844 C0            1 RES     
    2267 C0          94.0998   -69.8389   -14.4954 C0            1 RES     
    2268 C0          94.1197   -71.2640   -15.0713 C0            1 RES     
    2269 C0          94.7643   -71.3369   -16.4671 C0            1 RES     
    2270 C0          94.8990   -72.7749   -16.9917 C0            1 RES     
    2271 C0          93.5527   -73.4521   -17.2485 C0            1 RES     
    2272 C0          88.5115   -68.0597   -11.7625 C0            1 RES     
    2273 C0          88.4251   -66.7372   -10.9491 C0            1 RES     
    2274 C0          86.9833   -66.4019   -10.5271 C0            1 RES     
    2275 C0          86.7790   -65.0941    -9.7803 C0            1 RES     
    2276 C0          87.2648   -65.0388    -8.3388 C0            1 RES     
    2277 C0          86.7919   -63.6922    -7.7540 C0            1 RES     
    2278 C0          87.0573   -63.5220    -6.2571 C0            1 RES     
    2279 C0          86.2158   -64.4744    -5.4062 C0            1 RES     
    2280 H6          88.1016   -66.5412   -14.7908 H6            1 RES     
    2281 H6          87.9807   -68.1617   -15.3312 H6            1 RES     
    2282 H6          88.8450   -69.1604   -13.5354 H6            1 RES     
    2283 H6          90.1229   -66.3422   -13.4913 H6            1 RES     
    2284 H6          90.3540   -67.6006   -14.7534 H6            1 RES     
    2285 H6          91.4240   -69.1102   -13.0655 H6            1 RES     
    2286 H6          91.2465   -67.8349   -11.8084 H6            1 RES     
    2287 H6          93.4928   -67.8109   -12.6040 H6            1 RES     
    2288 H6          92.6677   -66.2729   -12.9757 H6            1 RES     
    2289 H6          94.1571   -67.0071   -14.8084 H6            1 RES     
    2290 H6          92.4593   -66.8565   -15.3486 H6            1 RES     
    2291 H6          92.1517   -69.3077   -15.3020 H6            1 RES     
    2292 H6          93.5308   -68.8073   -16.3336 H6            1 RES     
    2293 H6          93.7233   -69.9200   -13.4543 H6            1 RES     
    2294 H6          95.1341   -69.4333   -14.4605 H6            1 RES     
    2295 H6          94.7173   -71.8977   -14.3803 H6            1 RES     
    2296 H6          93.0809   -71.6566   -15.0924 H6            1 RES     
    2297 H6          94.1852   -70.7438   -17.2046 H6            1 RES     
    2298 H6          95.7873   -70.9068   -16.3978 H6            1 RES     
    2299 H6          95.4926   -73.3833   -16.2753 H6            1 RES     
    2300 H6          95.4516   -72.7385   -17.9553 H6            1 RES     
    2301 H6          92.9731   -73.5667   -16.3104 H6            1 RES     
    2302 H6          92.9595   -72.8623   -17.9794 H6            1 RES     
    2303 H6          93.7264   -74.4651   -17.6686 H6            1 RES     
    2304 H6          89.3688   -68.6101   -11.3334 H6            1 RES     
    2305 H6          87.7256   -68.7719   -11.4482 H6            1 RES     
    2306 H6          88.9627   -66.8956    -9.9883 H6            1 RES     
    2307 H6          88.9347   -65.9094   -11.4824 H6            1 RES     
    2308 H6          86.5479   -67.2436    -9.9421 H6            1 RES     
    2309 H6          86.3688   -66.2556   -11.4083 H6            1 RES     
    2310 H6          87.1888   -64.2501   -10.3766 H6            1 RES     
    2311 H6          85.6849   -64.9834    -9.7015 H6            1 RES     
    2312 H6          86.8003   -65.8865    -7.7920 H6            1 RES     
    2313 H6          88.3697   -65.1289    -8.2835 H6            1 RES     
    2314 H6          87.3099   -62.8766    -8.3051 H6            1 RES     
    2315 H6          85.6967   -63.5640    -7.9158 H6            1 RES     
    2316 H6          86.7633   -62.4844    -5.9852 H6            1 RES     
    2317 H6          88.1366   -63.6527    -6.0434 H6            1 RES     
    2318 H6          86.4849   -65.5325    -5.5958 H6            1 RES     
    2319 H6          86.3919   -64.2585    -4.3324 H6            1 RES     
    2320 H6          85.1343   -64.3293    -5.6210 H6            1 RES     
    2321 C0          82.8406   -75.5877   -23.9331 C0            1 RES     
    2322 C1          82.8500   -74.1725   -23.3144 C1            1 RES     
    2323 C1          82.5529   -73.2084   -24.2240 C1            1 RES     
    2324 S2          82.6447   -71.6548   -23.6073 S2            1 RES     
    2325 C1          83.1367   -72.2184   -22.0805 C1            1 RES     
    2326 C1          83.2241   -73.6148   -22.0804 C1            1 RES     
    2327 C1          82.3567   -73.8156   -25.4831 C1            1 RES     
    2328 C1          82.5954   -75.1509   -25.3782 C1            1 RES     
    2329 C1          82.5608   -75.7922   -26.6106 C1            1 RES     
    2330 C1          82.2495   -74.8810   -27.6338 C1            1 RES     
    2331 S2          82.0372   -73.3067   -27.0341 S2            1 RES     
    2332 H3          83.5923   -74.1549   -21.2289 H3            1 RES     
    2333 H3          82.7532   -76.8480   -26.7592 H3            1 RES     
    2334 N4          81.0359   -75.3324   -31.1514 N4            1 RES     
    2335 C1          81.0322   -75.1036   -29.8054 C1            1 RES     
    2336 C1          82.2246   -75.1671   -29.0639 C1            1 RES     
    2337 C1          83.4100   -75.4471   -29.7461 C1            1 RES     
    2338 N4          84.6347   -75.4808   -29.1608 N4            1 RES     
    2339 S2          85.6287   -75.7877   -30.4452 S2            1 RES     
    2340 N4          84.5925   -75.8882   -31.7315 N4            1 RES     
    2341 C1          83.3901   -75.6615   -31.1471 C1            1 RES     
    2342 C1          82.1805   -75.6140   -31.8350 C1            1 RES     
    2343 H5          80.0936   -74.8794   -29.3060 H5            1 RES     
    2344 C0          81.7174   -76.6047   -23.5245 C0            1 RES     
    2345 C0          80.1827   -76.6254   -23.8796 C0            1 RES     
    2346 C0          79.5899   -77.8257   -23.0609 C0            1 RES     
    2347 C0          78.1024   -78.1371   -23.2675 C0            1 RES     
    2348 C0          77.6176   -79.3030   -22.3740 C0            1 RES     
    2349 C0          78.2873   -80.6710   -22.6310 C0            1 RES     
    2350 C0          78.2055   -81.1695   -24.0846 C0            1 RES     
    2351 C0          76.7607   -81.2851   -24.6022 C0            1 RES     
    2352 C0          76.6841   -81.7289   -26.0700 C0            1 RES     
    2353 C0          77.1688   -83.1715   -26.2927 C0            1 RES     
    2354 C0          76.9806   -83.6437   -27.7432 C0            1 RES     
    2355 C0          77.8467   -82.8771   -28.7434 C0            1 RES     
    2356 C0          79.3330   -75.3236   -23.7114 C0            1 RES     
    2357 C0          79.1250   -74.7279   -22.2850 C0            1 RES     
    2358 C0          79.6797   -73.3004   -22.2580 C0            1 RES     
    2359 C0          79.8850   -72.6369   -20.8992 C0            1 RES     
    2360 C0          78.6455   -72.0545   -20.2360 C0            1 RES     
    2361 C0          79.0862   -71.3978   -18.9110 C0            1 RES     
    2362 C0          77.9873   -70.5961   -18.2096 C0            1 RES     
    2363 C0          77.6026   -69.3354   -18.9868 C0            1 RES     
    2364 H6          81.7365   -76.6592   -22.4660 H6            1 RES     
    2365 H6          82.0799   -77.5826   -23.9145 H6            1 RES     
    2366 H6          80.1110   -76.8684   -24.9633 H6            1 RES     
    2367 H6          79.7371   -77.6368   -21.9750 H6            1 RES     
    2368 H6          80.1710   -78.7351   -23.3248 H6            1 RES     
    2369 H6          77.9033   -78.3543   -24.3366 H6            1 RES     
    2370 H6          77.5003   -77.2538   -22.9735 H6            1 RES     
    2371 H6          76.5215   -79.4095   -22.5106 H6            1 RES     
    2372 H6          77.7772   -79.0374   -21.3055 H6            1 RES     
    2373 H6          77.8065   -81.4209   -21.9639 H6            1 RES     
    2374 H6          79.3587   -80.6237   -22.3411 H6            1 RES     
    2375 H6          78.7785   -80.4807   -24.7406 H6            1 RES     
    2376 H6          78.7009   -82.1619   -24.1211 H6            1 RES     
    2377 H6          76.2829   -80.2853   -24.5563 H6            1 RES     
    2378 H6          76.1761   -81.9816   -23.9621 H6            1 RES     
    2379 H6          75.6188   -81.6698   -26.3829 H6            1 RES     
    2380 H6          77.2679   -81.0136   -26.6865 H6            1 RES     
    2381 H6          78.2386   -83.2784   -26.0179 H6            1 RES     
    2382 H6          76.5697   -83.8418   -25.6384 H6            1 RES     
    2383 H6          75.9105   -83.5563   -28.0324 H6            1 RES     
    2384 H6          77.2661   -84.7164   -27.7969 H6            1 RES     
    2385 H6          77.5728   -81.8034   -28.7762 H6            1 RES     
    2386 H6          78.9200   -82.9758   -28.4749 H6            1 RES     
    2387 H6          77.6946   -83.2981   -29.7593 H6            1 RES     
    2388 H6          78.3213   -75.5276   -24.1229 H6            1 RES     
    2389 H6          79.7273   -74.5584   -24.4139 H6            1 RES     
    2390 H6          78.0426   -74.6848   -22.0289 H6            1 RES     
    2391 H6          79.6338   -75.3607   -21.5298 H6            1 RES     
    2392 H6          79.1476   -72.6280   -22.9635 H6            1 RES     
    2393 H6          80.6786   -73.4191   -22.6204 H6            1 RES     
    2394 H6          80.3950   -73.3371   -20.2331 H6            1 RES     
    2395 H6          80.5789   -71.7825   -21.0697 H6            1 RES     
    2396 H6          78.2256   -71.2979   -20.9323 H6            1 RES     
    2397 H6          77.8822   -72.8376   -20.0427 H6            1 RES     
    2398 H6          79.4344   -72.2046   -18.2269 H6            1 RES     
    2399 H6          79.9457   -70.7107   -19.0838 H6            1 RES     
    2400 H6          78.3850   -70.2690   -17.2237 H6            1 RES     
    2401 H6          77.0963   -71.2350   -18.0347 H6            1 RES     
    2402 H6          77.1588   -69.5841   -19.9709 H6            1 RES     
    2403 H6          76.8565   -68.7558   -18.4063 H6            1 RES     
    2404 H6          78.4990   -68.6947   -19.1441 H6            1 RES     
    2405 C0          84.2890   -76.1614   -23.6707 C0            1 RES     
    2406 C0          84.6466   -77.3743   -22.6975 C0            1 RES     
    2407 C0          86.1636   -77.2219   -22.3399 C0            1 RES     
    2408 C0          86.8039   -78.4284   -21.6240 C0            1 RES     
    2409 C0          88.2879   -78.2257   -21.2708 C0            1 RES     
    2410 C0          89.2297   -77.9705   -22.4611 C0            1 RES     
    2411 C0          89.1667   -79.0220   -23.5815 C0            1 RES     
    2412 C0          89.4672   -80.4514   -23.0973 C0            1 RES     
    2413 C0          89.3951   -81.4907   -24.2277 C0            1 RES     
    2414 C0          90.5021   -81.3072   -25.2813 C0            1 RES     
    2415 C0          90.5096   -82.4174   -26.3437 C0            1 RES     
    2416 C0          89.2584   -82.4204   -27.2222 C0            1 RES     
    2417 C0          83.8002   -77.8121   -21.4291 C0            1 RES     
    2418 C0          83.6969   -76.9193   -20.1602 C0            1 RES     
    2419 C0          82.3185   -76.2473   -20.0270 C0            1 RES     
    2420 C0          82.1328   -75.3009   -18.8524 C0            1 RES     
    2421 C0          82.0131   -75.9295   -17.4713 C0            1 RES     
    2422 C0          81.6599   -74.7951   -16.4877 C0            1 RES     
    2423 C0          81.3471   -75.2630   -15.0652 C0            1 RES     
    2424 C0          80.0511   -76.0716   -14.9915 C0            1 RES     
    2425 H6          84.9589   -75.3031   -23.4308 H6            1 RES     
    2426 H6          84.7040   -76.4718   -24.6562 H6            1 RES     
    2427 H6          84.5497   -78.2721   -23.3507 H6            1 RES     
    2428 H6          86.2976   -76.3210   -21.7029 H6            1 RES     
    2429 H6          86.7203   -77.0563   -23.2873 H6            1 RES     
    2430 H6          86.6788   -79.3361   -22.2509 H6            1 RES     
    2431 H6          86.3096   -78.6040   -20.6490 H6            1 RES     
    2432 H6          88.6324   -79.1311   -20.7269 H6            1 RES     
    2433 H6          88.3825   -77.3718   -20.5644 H6            1 RES     
    2434 H6          90.2685   -77.9180   -22.0679 H6            1 RES     
    2435 H6          88.9982   -76.9791   -22.9056 H6            1 RES     
    2436 H6          88.1622   -79.0000   -24.0556 H6            1 RES     
    2437 H6          89.9090   -78.7163   -24.3467 H6            1 RES     
    2438 H6          88.7045   -80.7435   -22.3454 H6            1 RES     
    2439 H6          90.4666   -80.4920   -22.6127 H6            1 RES     
    2440 H6          89.5171   -82.4959   -23.7686 H6            1 RES     
    2441 H6          88.3891   -81.4419   -24.6959 H6            1 RES     
    2442 H6          90.4059   -80.3277   -25.7935 H6            1 RES     
    2443 H6          91.4834   -81.3344   -24.7592 H6            1 RES     
    2444 H6          90.6237   -83.4081   -25.8525 H6            1 RES     
    2445 H6          91.3891   -82.2552   -27.0035 H6            1 RES     
    2446 H6          88.3476   -82.6314   -26.6264 H6            1 RES     
    2447 H6          89.1463   -81.4408   -27.7339 H6            1 RES     
    2448 H6          89.3539   -83.2139   -27.9929 H6            1 RES     
    2449 H6          84.2752   -78.7500   -21.0874 H6            1 RES     
    2450 H6          82.8175   -78.2481   -21.6896 H6            1 RES     
    2451 H6          83.7648   -77.5852   -19.2718 H6            1 RES     
    2452 H6          84.5445   -76.2064   -20.1065 H6            1 RES     
    2453 H6          81.5137   -77.0171   -20.0235 H6            1 RES     
    2454 H6          82.1481   -75.5911   -20.8731 H6            1 RES     
    2455 H6          82.9197   -74.5158   -18.8713 H6            1 RES     
    2456 H6          81.1497   -74.8317   -19.0222 H6            1 RES     
    2457 H6          81.1961   -76.6806   -17.5106 H6            1 RES     
    2458 H6          82.9578   -76.4312   -17.1750 H6            1 RES     
    2459 H6          82.5192   -74.0898   -16.4526 H6            1 RES     
    2460 H6          80.7740   -74.2273   -16.8549 H6            1 RES     
    2461 H6          81.2079   -74.3530   -14.4412 H6            1 RES     
    2462 H6          82.1979   -75.8452   -14.6590 H6            1 RES     
    2463 H6          80.1312   -77.0187   -15.5612 H6            1 RES     
    2464 H6          79.8347   -76.3209   -13.9325 H6            1 RES     
    2465 H6          79.2020   -75.4758   -15.3927 H6            1 RES     
    2466 C0          81.8453   -78.0295   -36.6962 C0            1 RES     
    2467 C1          81.9244   -77.0244   -35.5261 C1            1 RES     
    2468 C1          82.2297   -75.7681   -35.9432 C1            1 RES     
    2469 S2          82.4139   -74.6729   -34.6906 S2            1 RES     
    2470 C1          82.1291   -75.8679   -33.5152 C1            1 RES     
    2471 C1          81.8977   -77.1063   -34.1239 C1            1 RES     
    2472 C1          82.4141   -75.7855   -37.3426 C1            1 RES     
    2473 C1          82.2902   -77.0627   -37.7946 C1            1 RES     
    2474 C1          82.6008   -77.1779   -39.1442 C1            1 RES     
    2475 C1          82.9262   -75.9229   -39.6859 C1            1 RES     
    2476 S2          82.8502   -74.6925   -38.5181 S2            1 RES     
    2477 H3          81.7727   -78.0021   -33.5459 H3            1 RES     
    2478 H3          82.5969   -78.1090   -39.6982 H3            1 RES     
    2479 N4          83.1230   -74.6520   -43.2067 N4            1 RES     
    2480 C1          82.6422   -74.9183   -41.9569 C1            1 RES     
    2481 C1          83.4017   -75.6664   -41.0407 C1            1 RES     
    2482 C1          84.6656   -76.1068   -41.4379 C1            1 RES     
    2483 N4          85.5218   -76.7869   -40.6330 N4            1 RES     
    2484 S2          86.8451   -76.9720   -41.6057 S2            1 RES     
    2485 N4          86.4026   -76.2345   -43.0195 N4            1 RES     
    2486 C1          85.1501   -75.8003   -42.7342 C1            1 RES     
    2487 C1          84.3507   -75.0782   -43.6165 C1            1 RES     
    2488 H5          81.6581   -74.5535   -41.6760 H5            1 RES     
    2489 C0          80.4569   -78.6378   -37.1027 C0            1 RES     
    2490 C0          79.2216   -77.9707   -37.8174 C0            1 RES     
    2491 C0          78.1052   -79.0734   -37.8181 C0            1 RES     
    2492 C0          76.7894   -78.7260   -38.5254 C0            1 RES     
    2493 C0          75.7476   -79.8645   -38.4184 C0            1 RES     
    2494 C0          76.1433   -81.2027   -39.0807 C0            1 RES     
    2495 C0          76.5302   -81.1008   -40.5667 C0            1 RES     
    2496 C0          75.4178   -80.4924   -41.4391 C0            1 RES     
    2497 C0          75.8271   -80.3402   -42.9112 C0            1 RES     
    2498 C0          76.0275   -81.6869   -43.6264 C0            1 RES     
    2499 C0          76.3240   -81.5244   -45.1257 C0            1 RES     
    2500 C0          77.6596   -80.8337   -45.4042 C0            1 RES     
    2501 C0          78.6855   -76.5929   -37.3080 C0            1 RES     
    2502 C0          78.0721   -76.4953   -35.8773 C0            1 RES     
    2503 C0          78.8729   -75.4747   -35.0629 C0            1 RES     
    2504 C0          78.6701   -75.4466   -33.5507 C0            1 RES     
    2505 C0          77.4323   -74.7187   -33.0471 C0            1 RES     
    2506 C0          77.4513   -74.7710   -31.5050 C0            1 RES     
    2507 C0          76.3728   -73.9184   -30.8327 C0            1 RES     
    2508 C0          76.6136   -72.4197   -31.0258 C0            1 RES     
    2509 H6          80.0465   -79.0579   -36.2201 H6            1 RES     
    2510 H6          80.7169   -79.4805   -37.7824 H6            1 RES     
    2511 H6          79.5289   -77.7796   -38.8698 H6            1 RES     
    2512 H6          77.8524   -79.3396   -36.7685 H6            1 RES     
    2513 H6          78.5261   -79.9807   -38.3020 H6            1 RES     
    2514 H6          76.9830   -78.4711   -39.5871 H6            1 RES     
    2515 H6          76.3322   -77.8440   -38.0330 H6            1 RES     
    2516 H6          74.7992   -79.5077   -38.8705 H6            1 RES     
    2517 H6          75.5297   -80.0629   -37.3456 H6            1 RES     
    2518 H6          75.2862   -81.9050   -38.9775 H6            1 RES     
    2519 H6          76.9965   -81.6546   -38.5311 H6            1 RES     
    2520 H6          77.4517   -80.4889   -40.6639 H6            1 RES     
    2521 H6          76.7669   -82.1270   -40.9168 H6            1 RES     
    2522 H6          75.1948   -79.4695   -41.0731 H6            1 RES     
    2523 H6          74.4904   -81.1012   -41.3620 H6            1 RES     
    2524 H6          75.0119   -79.7907   -43.4305 H6            1 RES     
    2525 H6          76.7487   -79.7230   -42.9598 H6            1 RES     
    2526 H6          76.8510   -82.2663   -43.1599 H6            1 RES     
    2527 H6          75.0875   -82.2728   -43.5292 H6            1 RES     
    2528 H6          75.5015   -80.9569   -45.6134 H6            1 RES     
    2529 H6          76.3624   -82.5371   -45.5819 H6            1 RES     
    2530 H6          77.6657   -79.7944   -45.0182 H6            1 RES     
    2531 H6          78.4905   -81.4049   -44.9384 H6            1 RES     
    2532 H6          77.8291   -80.7904   -46.5005 H6            1 RES     
    2533 H6          77.8986   -76.2563   -38.0164 H6            1 RES     
    2534 H6          79.4826   -75.8335   -37.4572 H6            1 RES     
    2535 H6          77.0148   -76.1501   -35.9234 H6            1 RES     
    2536 H6          78.0898   -77.4895   -35.3864 H6            1 RES     
    2537 H6          78.8237   -74.4550   -35.4996 H6            1 RES     
    2538 H6          79.8806   -75.8179   -35.1634 H6            1 RES     
    2539 H6          78.7088   -76.4686   -33.1659 H6            1 RES     
    2540 H6          79.5457   -74.9038   -33.1274 H6            1 RES     
    2541 H6          77.4983   -73.6706   -33.4084 H6            1 RES     
    2542 H6          76.5016   -75.1824   -33.4369 H6            1 RES     
    2543 H6          77.3150   -75.8321   -31.1956 H6            1 RES     
    2544 H6          78.4387   -74.4326   -31.1160 H6            1 RES     
    2545 H6          76.4134   -74.1224   -29.7401 H6            1 RES     
    2546 H6          75.3671   -74.2043   -31.2065 H6            1 RES     
    2547 H6          76.5484   -72.1317   -32.0935 H6            1 RES     
    2548 H6          75.8481   -71.8463   -30.4645 H6            1 RES     
    2549 H6          77.6175   -72.1402   -30.6348 H6            1 RES     
    2550 C0          82.9082   -79.1464   -36.3521 C0            1 RES     
    2551 C0          82.5769   -80.6617   -35.9775 C0            1 RES     
    2552 C0          83.8245   -81.2095   -35.2058 C0            1 RES     
    2553 C0          83.8480   -82.7337   -34.9734 C0            1 RES     
    2554 C0          85.0791   -83.2245   -34.1913 C0            1 RES     
    2555 C0          86.4435   -82.9375   -34.8434 C0            1 RES     
    2556 C0          86.5939   -83.4353   -36.2905 C0            1 RES     
    2557 C0          86.3554   -84.9477   -36.4457 C0            1 RES     
    2558 C0          86.5044   -85.4282   -37.8984 C0            1 RES     
    2559 C0          87.9467   -85.3109   -38.4229 C0            1 RES     
    2560 C0          88.1243   -85.9054   -39.8288 C0            1 RES     
    2561 C0          87.3513   -85.1458   -40.9071 C0            1 RES     
    2562 C0          81.2266   -81.1684   -35.3165 C0            1 RES     
    2563 C0          80.8343   -80.7980   -33.8581 C0            1 RES     
    2564 C0          79.7004   -79.7585   -33.8022 C0            1 RES     
    2565 C0          79.2834   -79.2791   -32.4216 C0            1 RES     
    2566 C0          78.4953   -80.2558   -31.5602 C0            1 RES     
    2567 C0          78.0454   -79.4865   -30.3014 C0            1 RES     
    2568 C0          77.1044   -80.2679   -29.3826 C0            1 RES     
    2569 C0          75.7393   -80.5172   -30.0257 C0            1 RES     
    2570 H6          83.6023   -78.7333   -35.5836 H6            1 RES     
    2571 H6          83.5966   -79.2259   -37.2237 H6            1 RES     
    2572 H6          82.5478   -81.1759   -36.9659 H6            1 RES     
    2573 H6          83.8938   -80.7006   -34.2201 H6            1 RES     
    2574 H6          84.7299   -80.9428   -35.7923 H6            1 RES     
    2575 H6          83.7812   -83.2553   -35.9512 H6            1 RES     
    2576 H6          82.9852   -83.0415   -34.3515 H6            1 RES     
    2577 H6          84.9727   -84.3209   -34.0471 H6            1 RES     
    2578 H6          85.0755   -82.7657   -33.1782 H6            1 RES     
    2579 H6          87.2282   -83.4087   -34.2119 H6            1 RES     
    2580 H6          86.6308   -81.8426   -34.8344 H6            1 RES     
    2581 H6          85.8880   -82.8845   -36.9482 H6            1 RES     
    2582 H6          87.6245   -83.1787   -36.6097 H6            1 RES     
    2583 H6          85.3149   -85.1805   -36.1371 H6            1 RES     
    2584 H6          87.0485   -85.5165   -35.7888 H6            1 RES     
    2585 H6          86.2105   -86.5000   -37.9298 H6            1 RES     
    2586 H6          85.8008   -84.8556   -38.5392 H6            1 RES     
    2587 H6          88.2788   -84.2525   -38.4416 H6            1 RES     
    2588 H6          88.6118   -85.8744   -37.7328 H6            1 RES     
    2589 H6          87.8139   -86.9728   -39.8284 H6            1 RES     
    2590 H6          89.2042   -85.8594   -40.0871 H6            1 RES     
    2591 H6          86.2577   -85.2004   -40.7338 H6            1 RES     
    2592 H6          87.6691   -84.0817   -40.9296 H6            1 RES     
    2593 H6          87.5632   -85.5998   -41.8980 H6            1 RES     
    2594 H6          81.3087   -82.2707   -35.3250 H6            1 RES     
    2595 H6          80.3549   -81.0949   -35.9936 H6            1 RES     
    2596 H6          80.3987   -81.7053   -33.3844 H6            1 RES     
    2597 H6          81.7278   -80.5113   -33.2675 H6            1 RES     
    2598 H6          78.8100   -80.1300   -34.3586 H6            1 RES     
    2599 H6          80.0256   -78.8367   -34.2713 H6            1 RES     
    2600 H6          80.1672   -78.8826   -31.8761 H6            1 RES     
    2601 H6          78.5764   -78.4549   -32.6120 H6            1 RES     
    2602 H6          77.6150   -80.5918   -32.1479 H6            1 RES     
    2603 H6          79.1113   -81.1377   -31.2868 H6            1 RES     
    2604 H6          78.9550   -79.2042   -29.7268 H6            1 RES     
    2605 H6          77.5245   -78.5445   -30.5898 H6            1 RES     
    2606 H6          76.9368   -79.6466   -28.4755 H6            1 RES     
    2607 H6          77.5755   -81.2230   -29.0766 H6            1 RES     
    2608 H6          75.8246   -81.1676   -30.9187 H6            1 RES     
    2609 H6          75.0754   -81.0194   -29.2925 H6            1 RES     
    2610 H6          75.2708   -79.5527   -30.3208 H6            1 RES     
    2611 C0          85.4237   -75.3612   -48.9406 C0            1 RES     
    2612 C1          85.2579   -74.9265   -47.4678 C1            1 RES     
    2613 C1          85.9723   -73.8089   -47.1748 C1            1 RES     
    2614 S2          85.8880   -73.3634   -45.5634 S2            1 RES     
    2615 C1          84.9078   -74.6978   -45.1769 C1            1 RES     
    2616 C1          84.6657   -75.4723   -46.3167 C1            1 RES     
    2617 C1          86.6822   -73.4076   -48.3271 C1            1 RES     
    2618 C1          86.4660   -74.3092   -49.3227 C1            1 RES     
    2619 C1          87.2473   -74.0559   -50.4437 C1            1 RES     
    2620 C1          88.0284   -72.9038   -50.2522 C1            1 RES     
    2621 S2          87.7750   -72.2168   -48.7201 S2            1 RES     
    2622 H3          84.1288   -76.4003   -46.2621 H3            1 RES     
    2623 H3          87.2550   -74.6674   -51.3381 H3            1 RES     
    2624 N4          89.8672   -70.6606   -52.6265 N4            1 RES     
    2625 C1          88.8886   -71.1467   -51.8079 C1            1 RES     
    2626 C1          89.0414   -72.3880   -51.1662 C1            1 RES     
    2627 C1          90.2279   -73.0941   -51.3723 C1            1 RES     
    2628 N4          90.5258   -74.2735   -50.7694 N4            1 RES     
    2629 S2          92.0478   -74.5820   -51.3351 S2            1 RES     
    2630 N4          92.3708   -73.2939   -52.3225 N4            1 RES     
    2631 C1          91.2370   -72.5586   -52.2115 C1            1 RES     
    2632 C1          91.0295   -71.3369   -52.8465 C1            1 RES     
    2633 H5          87.9806   -70.5681   -51.6616 H5            1 RES     
    2634 C0          84.2090   -75.2375   -49.9265 C0            1 RES     
    2635 C0          83.5344   -73.9615   -50.5579 C0            1 RES     
    2636 C0          82.2937   -74.5049   -51.3503 C0            1 RES     
    2637 C0          81.4735   -73.4782   -52.1412 C0            1 RES     
    2638 C0          80.2494   -74.1170   -52.8385 C0            1 RES     
    2639 C0          80.5659   -75.1890   -53.9046 C0            1 RES     
    2640 C0          81.5170   -74.7289   -55.0235 C0            1 RES     
    2641 C0          81.0011   -73.4942   -55.7837 C0            1 RES     
    2642 C0          81.9777   -73.0036   -56.8621 C0            1 RES     
    2643 C0          82.1389   -73.9931   -58.0285 C0            1 RES     
    2644 C0          83.0280   -73.4429   -59.1551 C0            1 RES     
    2645 C0          84.4825   -73.2393   -58.7296 C0            1 RES     
    2646 C0          83.1611   -72.7511   -49.6411 C0            1 RES     
    2647 C0          82.0738   -72.9367   -48.5384 C0            1 RES     
    2648 C0          82.6953   -72.6301   -47.1725 C0            1 RES     
    2649 C0          81.9271   -73.0543   -45.9240 C0            1 RES     
    2650 C0          80.7858   -72.1462   -45.4902 C0            1 RES     
    2651 C0          80.1861   -72.7315   -44.1944 C0            1 RES     
    2652 C0          79.1484   -71.8323   -43.5187 C0            1 RES     
    2653 C0          79.7711   -70.5592   -42.9420 C0            1 RES     
    2654 H6          83.4032   -75.7552   -49.4720 H6            1 RES     
    2655 H6          84.5210   -75.8257   -50.8189 H6            1 RES     
    2656 H6          84.2641   -73.5452   -51.2879 H6            1 RES     
    2657 H6          81.5972   -75.0051   -50.6425 H6            1 RES     
    2658 H6          82.6583   -75.2755   -52.0628 H6            1 RES     
    2659 H6          82.1195   -72.9618   -52.8800 H6            1 RES     
    2660 H6          81.0676   -72.7190   -51.4425 H6            1 RES     
    2661 H6          79.6591   -73.3050   -53.3112 H6            1 RES     
    2662 H6          79.5899   -74.5795   -52.0710 H6            1 RES     
    2663 H6          79.6047   -75.5174   -54.3592 H6            1 RES     
    2664 H6          81.0118   -76.0820   -53.4167 H6            1 RES     
    2665 H6          82.5133   -74.5043   -54.5877 H6            1 RES     
    2666 H6          81.6383   -75.5810   -55.7241 H6            1 RES     
    2667 H6          80.8850   -72.6554   -55.0675 H6            1 RES     
    2668 H6          80.0080   -73.7070   -56.2367 H6            1 RES     
    2669 H6          81.5755   -72.0507   -57.2701 H6            1 RES     
    2670 H6          82.9563   -72.7913   -56.3826 H6            1 RES     
    2671 H6          82.5627   -74.9566   -57.6769 H6            1 RES     
    2672 H6          81.1318   -74.1884   -58.4573 H6            1 RES     
    2673 H6          82.6108   -72.4828   -59.5298 H6            1 RES     
    2674 H6          83.0168   -74.1741   -59.9920 H6            1 RES     
    2675 H6          84.5668   -72.4772   -57.9288 H6            1 RES     
    2676 H6          84.9150   -74.1982   -58.3730 H6            1 RES     
    2677 H6          85.0736   -72.8849   -59.5999 H6            1 RES     
    2678 H6          82.8113   -71.9271   -50.2991 H6            1 RES     
    2679 H6          84.0996   -72.3356   -49.2155 H6            1 RES     
    2680 H6          81.2246   -72.2352   -48.6990 H6            1 RES     
    2681 H6          81.6767   -73.9718   -48.5651 H6            1 RES     
    2682 H6          83.0487   -71.5802   -47.0963 H6            1 RES     
    2683 H6          83.5583   -73.2610   -47.1490 H6            1 RES     
    2684 H6          81.5843   -74.0844   -46.0482 H6            1 RES     
    2685 H6          82.6630   -73.0525   -45.0879 H6            1 RES     
    2686 H6          81.2187   -71.1400   -45.3067 H6            1 RES     
    2687 H6          80.0052   -72.0710   -46.2764 H6            1 RES     
    2688 H6          79.7080   -73.7052   -44.4465 H6            1 RES     
    2689 H6          80.9899   -72.9354   -43.4507 H6            1 RES     
    2690 H6          78.7107   -72.4012   -42.6690 H6            1 RES     
    2691 H6          78.3339   -71.5816   -44.2305 H6            1 RES     
    2692 H6          80.1957   -69.9173   -43.7388 H6            1 RES     
    2693 H6          78.9946   -69.9774   -42.4050 H6            1 RES     
    2694 H6          80.5758   -70.8206   -42.2189 H6            1 RES     
    2695 C0          85.9900   -76.8344   -48.8737 C0            1 RES     
    2696 C0          85.2116   -78.1515   -49.3270 C0            1 RES     
    2697 C0          85.9013   -79.3487   -48.5896 C0            1 RES     
    2698 C0          85.4933   -80.7544   -49.0751 C0            1 RES     
    2699 C0          86.1768   -81.8997   -48.3075 C0            1 RES     
    2700 C0          87.7142   -81.9262   -48.3755 C0            1 RES     
    2701 C0          88.3060   -81.9110   -49.7947 C0            1 RES     
    2702 C0          87.8189   -83.0764   -50.6738 C0            1 RES     
    2703 C0          88.4155   -83.0439   -52.0902 C0            1 RES     
    2704 C0          89.9348   -83.2895   -52.1059 C0            1 RES     
    2705 C0          90.5133   -83.3821   -53.5265 C0            1 RES     
    2706 C0          90.4147   -82.0699   -54.3048 C0            1 RES     
    2707 C0          83.6345   -78.3231   -49.3470 C0            1 RES     
    2708 C0          82.7941   -78.3637   -48.0393 C0            1 RES     
    2709 C0          81.9902   -77.0697   -47.8189 C0            1 RES     
    2710 C0          81.1825   -76.9801   -46.5346 C0            1 RES     
    2711 C0          79.9246   -77.8330   -46.4490 C0            1 RES     
    2712 C0          79.1994   -77.4388   -45.1461 C0            1 RES     
    2713 C0          77.8257   -78.0868   -44.9634 C0            1 RES     
    2714 C0          76.8042   -77.5796   -45.9824 C0            1 RES     
    2715 H6          86.3997   -76.9976   -47.8497 H6            1 RES     
    2716 H6          86.9290   -76.8540   -49.4720 H6            1 RES     
    2717 H6          85.4595   -78.2433   -50.4096 H6            1 RES     
    2718 H6          85.6891   -79.2753   -47.5011 H6            1 RES     
    2719 H6          86.9987   -79.2472   -48.7314 H6            1 RES     
    2720 H6          85.7018   -80.8423   -50.1620 H6            1 RES     
    2721 H6          84.4109   -80.9192   -48.9106 H6            1 RES     
    2722 H6          85.7822   -82.8578   -48.7085 H6            1 RES     
    2723 H6          85.8777   -81.8524   -47.2373 H6            1 RES     
    2724 H6          88.0625   -82.8391   -47.8445 H6            1 RES     
    2725 H6          88.1205   -81.0521   -47.8233 H6            1 RES     
    2726 H6          88.0559   -80.9491   -50.2913 H6            1 RES     
    2727 H6          89.4082   -81.9565   -49.6803 H6            1 RES     
    2728 H6          86.7173   -83.0031   -50.7891 H6            1 RES     
    2729 H6          88.0539   -84.0488   -50.1894 H6            1 RES     
    2730 H6          87.9279   -83.8511   -52.6790 H6            1 RES     
    2731 H6          88.1656   -82.0698   -52.5620 H6            1 RES     
    2732 H6          90.4731   -82.4904   -51.5558 H6            1 RES     
    2733 H6          90.1330   -84.2587   -51.5981 H6            1 RES     
    2734 H6          89.9995   -84.1906   -54.0906 H6            1 RES     
    2735 H6          91.5889   -83.6486   -53.4425 H6            1 RES     
    2736 H6          89.3582   -81.7763   -54.4686 H6            1 RES     
    2737 H6          90.9429   -81.2593   -53.7591 H6            1 RES     
    2738 H6          90.8920   -82.1971   -55.2991 H6            1 RES     
    2739 H6          83.4670   -79.3025   -49.8314 H6            1 RES     
    2740 H6          83.1383   -77.7062   -50.1196 H6            1 RES     
    2741 H6          82.0184   -79.1517   -48.1603 H6            1 RES     
    2742 H6          83.4236   -78.6476   -47.1718 H6            1 RES     
    2743 H6          81.3314   -76.8719   -48.6948 H6            1 RES     
    2744 H6          82.6689   -76.2303   -47.7163 H6            1 RES     
    2745 H6          81.8453   -77.1500   -45.6584 H6            1 RES     
    2746 H6          80.8086   -75.9432   -46.5095 H6            1 RES     
    2747 H6          79.2949   -77.5974   -47.3329 H6            1 RES     
    2748 H6          80.1718   -78.9150   -46.4534 H6            1 RES     
    2749 H6          79.8486   -77.7269   -44.2900 H6            1 RES     
    2750 H6          79.0563   -76.3345   -45.1024 H6            1 RES     
    2751 H6          77.4579   -77.8023   -43.9531 H6            1 RES     
    2752 H6          77.9146   -79.1902   -45.0111 H6            1 RES     
    2753 H6          77.0866   -77.8640   -47.0154 H6            1 RES     
    2754 H6          75.8126   -78.0237   -45.7589 H6            1 RES     
    2755 H6          76.7154   -76.4727   -45.9205 H6            1 RES     
    2756 C0          94.0138   -70.1336   -57.2311 C0            1 RES     
    2757 C1          93.3842   -70.2066   -55.8226 C1            1 RES     
    2758 C1          94.1546   -69.6042   -54.8798 C1            1 RES     
    2759 S2          93.5458   -69.7456   -53.3268 S2            1 RES     
    2760 C1          92.2234   -70.6729   -53.8583 C1            1 RES     
    2761 C1          92.2829   -70.8592   -55.2437 C1            1 RES     
    2762 C1          95.3294   -69.1192   -55.4941 C1            1 RES     
    2763 C1          95.3273   -69.4747   -56.8073 C1            1 RES     
    2764 C1          96.5208   -69.1545   -57.4433 C1            1 RES     
    2765 C1          97.3982   -68.5115   -56.5539 C1            1 RES     
    2766 S2          96.7230   -68.3550   -55.0037 S2            1 RES     
    2767 H3          91.5767   -71.4830   -55.7578 H3            1 RES     
    2768 H3          96.7430   -69.3762   -58.4802 H3            1 RES     
    2769 N4         100.4683   -66.4265   -57.0804 N4            1 RES     
    2770 C1          99.1658   -66.7710   -56.8593 C1            1 RES     
    2771 C1          98.7754   -68.1211   -56.8338 C1            1 RES     
    2772 C1          99.7591   -69.0944   -57.0177 C1            1 RES     
    2773 N4          99.5271   -70.4309   -56.9592 N4            1 RES     
    2774 S2         101.0395   -71.0594   -57.1816 S2            1 RES     
    2775 N4         102.0007   -69.7236   -57.3558 N4            1 RES     
    2776 C1         101.1078   -68.7114   -57.2259 C1            1 RES     
    2777 C1         101.4424   -67.3605   -57.2689 C1            1 RES     
    2778 H5          98.4260   -65.9890   -56.7110 H5            1 RES     
    2779 C0          93.3436   -69.2409   -58.3341 C0            1 RES     
    2780 C0          93.2719   -67.6732   -58.4720 C0            1 RES     
    2781 C0          92.3549   -67.4140   -59.7187 C0            1 RES     
    2782 C0          92.1604   -65.9532   -60.1435 C0            1 RES     
    2783 C0          91.1996   -65.8155   -61.3480 C0            1 RES     
    2784 C0          91.6631   -66.4888   -62.6586 C0            1 RES     
    2785 C0          93.0530   -66.0529   -63.1546 C0            1 RES     
    2786 C0          93.1643   -64.5345   -63.3793 C0            1 RES     
    2787 C0          94.5681   -64.0956   -63.8204 C0            1 RES     
    2788 C0          94.9504   -64.6062   -65.2199 C0            1 RES     
    2789 C0          96.3080   -64.0671   -65.6980 C0            1 RES     
    2790 C0          97.4847   -64.5712   -64.8616 C0            1 RES     
    2791 C0          92.8471   -66.8078   -57.2409 C0            1 RES     
    2792 C0          91.4026   -66.9511   -56.6702 C0            1 RES     
    2793 C0          91.4894   -67.3861   -55.2042 C0            1 RES     
    2794 C0          90.2198   -67.9028   -54.5335 C0            1 RES     
    2795 C0          89.2319   -66.8502   -54.0523 C0            1 RES     
    2796 C0          88.0584   -67.5842   -53.3700 C0            1 RES     
    2797 C0          87.0661   -66.6608   -52.6595 C0            1 RES     
    2798 C0          87.6778   -65.9886   -51.4286 C0            1 RES     
    2799 H6          92.3313   -69.5501   -58.3923 H6            1 RES     
    2800 H6          93.8421   -69.5548   -59.2790 H6            1 RES     
    2801 H6          94.3020   -67.3284   -58.7144 H6            1 RES     
    2802 H6          91.3445   -67.8357   -59.5244 H6            1 RES     
    2803 H6          92.7891   -67.9669   -60.5790 H6            1 RES     
    2804 H6          93.1414   -65.4883   -60.3702 H6            1 RES     
    2805 H6          91.6921   -65.3903   -59.3110 H6            1 RES     
    2806 H6          91.0381   -64.7343   -61.5384 H6            1 RES     
    2807 H6          90.2073   -66.2387   -61.0761 H6            1 RES     
    2808 H6          90.9106   -66.2632   -63.4468 H6            1 RES     
    2809 H6          91.6719   -67.5923   -62.5298 H6            1 RES     
    2810 H6          93.8213   -66.3746   -62.4202 H6            1 RES     
    2811 H6          93.2475   -66.5913   -64.1055 H6            1 RES     
    2812 H6          92.9655   -64.0150   -62.4199 H6            1 RES     
    2813 H6          92.4084   -64.1979   -64.1223 H6            1 RES     
    2814 H6          94.5802   -62.9840   -63.8425 H6            1 RES     
    2815 H6          95.3005   -64.4365   -63.0589 H6            1 RES     
    2816 H6          94.9773   -65.7153   -65.2450 H6            1 RES     
    2817 H6          94.1763   -64.2577   -65.9380 H6            1 RES     
    2818 H6          96.2954   -62.9553   -65.6925 H6            1 RES     
    2819 H6          96.4645   -64.4052   -66.7451 H6            1 RES     
    2820 H6          97.4146   -64.2206   -63.8122 H6            1 RES     
    2821 H6          97.5184   -65.6813   -64.8781 H6            1 RES     
    2822 H6          98.4324   -64.1807   -65.2880 H6            1 RES     
    2823 H6          92.9755   -65.7403   -57.5207 H6            1 RES     
    2824 H6          93.6100   -66.9398   -56.4439 H6            1 RES     
    2825 H6          90.8629   -65.9784   -56.7125 H6            1 RES     
    2826 H6          90.8293   -67.6905   -57.2655 H6            1 RES     
    2827 H6          92.0076   -66.6350   -54.5715 H6            1 RES     
    2828 H6          92.1109   -68.2554   -55.2432 H6            1 RES     
    2829 H6          89.7342   -68.6242   -55.1954 H6            1 RES     
    2830 H6          90.5491   -68.4600   -53.6270 H6            1 RES     
    2831 H6          89.7692   -66.2031   -53.3271 H6            1 RES     
    2832 H6          88.8601   -66.2274   -54.8932 H6            1 RES     
    2833 H6          87.5148   -68.1629   -54.1509 H6            1 RES     
    2834 H6          88.4390   -68.3119   -52.6176 H6            1 RES     
    2835 H6          86.2159   -67.2857   -52.3075 H6            1 RES     
    2836 H6          86.6738   -65.8998   -53.3665 H6            1 RES     
    2837 H6          88.5117   -65.3141   -51.7060 H6            1 RES     
    2838 H6          86.9028   -65.3872   -50.9115 H6            1 RES     
    2839 H6          88.0546   -66.7593   -50.7195 H6            1 RES     
    2840 C0          94.1667   -71.6369   -57.6920 C0            1 RES     
    2841 C0          93.3578   -72.3328   -58.8784 C0            1 RES     
    2842 C0          93.4190   -73.8745   -58.6106 C0            1 RES     
    2843 C0          92.9338   -74.7715   -59.7674 C0            1 RES     
    2844 C0          92.9890   -76.2767   -59.4520 C0            1 RES     
    2845 C0          94.3823   -76.8393   -59.1186 C0            1 RES     
    2846 C0          95.4709   -76.5523   -60.1662 C0            1 RES     
    2847 C0          95.1228   -77.0766   -61.5704 C0            1 RES     
    2848 C0          96.2183   -76.7773   -62.6065 C0            1 RES     
    2849 C0          97.5264   -77.5408   -62.3324 C0            1 RES     
    2850 C0          98.5797   -77.3414   -63.4333 C0            1 RES     
    2851 C0          99.0878   -75.9027   -63.5289 C0            1 RES     
    2852 C0          91.9198   -71.8963   -59.3869 C0            1 RES     
    2853 C0          90.6475   -72.0756   -58.5111 C0            1 RES     
    2854 C0          90.1300   -70.7394   -57.9487 C0            1 RES     
    2855 C0          88.9249   -70.8102   -57.0254 C0            1 RES     
    2856 C0          87.5794   -71.1157   -57.6683 C0            1 RES     
    2857 C0          86.5080   -70.9600   -56.5697 C0            1 RES     
    2858 C0          85.0665   -71.0797   -57.0675 C0            1 RES     
    2859 C0          84.6667   -69.9150   -57.9746 C0            1 RES     
    2860 H6          94.0945   -72.2820   -56.7856 H6            1 RES     
    2861 H6          95.2354   -71.7909   -57.9644 H6            1 RES     
    2862 H6          93.9836   -72.1285   -59.7777 H6            1 RES     
    2863 H6          92.8187   -74.1097   -57.7053 H6            1 RES     
    2864 H6          94.4768   -74.1399   -58.3977 H6            1 RES     
    2865 H6          93.5269   -74.5481   -60.6789 H6            1 RES     
    2866 H6          91.8664   -74.5742   -59.9857 H6            1 RES     
    2867 H6          92.5819   -76.8211   -60.3307 H6            1 RES     
    2868 H6          92.3126   -76.4963   -58.5969 H6            1 RES     
    2869 H6          94.2827   -77.9391   -58.9876 H6            1 RES     
    2870 H6          94.7221   -76.4240   -58.1459 H6            1 RES     
    2871 H6          95.6556   -75.4581   -60.2198 H6            1 RES     
    2872 H6          96.3998   -77.0350   -59.8000 H6            1 RES     
    2873 H6          94.2009   -76.5698   -61.9245 H6            1 RES     
    2874 H6          94.9270   -78.1702   -61.5358 H6            1 RES     
    2875 H6          95.8353   -77.0925   -63.6015 H6            1 RES     
    2876 H6          96.3962   -75.6813   -62.6335 H6            1 RES     
    2877 H6          97.9682   -77.2379   -61.3608 H6            1 RES     
    2878 H6          97.2893   -78.6261   -62.2860 H6            1 RES     
    2879 H6          98.1633   -77.6566   -64.4147 H6            1 RES     
    2880 H6          99.4479   -77.9948   -63.2002 H6            1 RES     
    2881 H6          98.2740   -75.2054   -63.8130 H6            1 RES     
    2882 H6          99.5248   -75.5846   -62.5585 H6            1 RES     
    2883 H6          99.8759   -75.8437   -64.3088 H6            1 RES     
    2884 H6          91.7433   -72.5135   -60.2868 H6            1 RES     
    2885 H6          91.9167   -70.9144   -59.8965 H6            1 RES     
    2886 H6          89.8279   -72.4303   -59.1742 H6            1 RES     
    2887 H6          90.8061   -72.8514   -57.7349 H6            1 RES     
    2888 H6          89.9294   -70.0244   -58.7786 H6            1 RES     
    2889 H6          90.8816   -70.2985   -57.3034 H6            1 RES     
    2890 H6          89.1351   -71.5027   -56.1816 H6            1 RES     
    2891 H6          88.8110   -69.7862   -56.6330 H6            1 RES     
    2892 H6          87.4162   -70.3759   -58.4804 H6            1 RES     
    2893 H6          87.5621   -72.1394   -58.0968 H6            1 RES     
    2894 H6          86.6878   -71.7427   -55.8001 H6            1 RES     
    2895 H6          86.6078   -69.9687   -56.0705 H6            1 RES     
    2896 H6          84.4047   -71.0485   -56.1742 H6            1 RES     
    2897 H6          84.9201   -72.0490   -57.5840 H6            1 RES     
    2898 H6          85.2612   -69.9069   -58.9097 H6            1 RES     
    2899 H6          83.5954   -70.0126   -58.2452 H6            1 RES     
    2900 H6          84.8084   -68.9477   -57.4444 H6            1 RES     
    2901 C0         106.0936   -65.8983   -59.6788 C0            1 RES     
    2902 C1         104.9626   -66.2177   -58.6764 C1            1 RES     
    2903 C1         105.4140   -66.3056   -57.3982 C1            1 RES     
    2904 S2         104.2298   -66.7416   -56.2982 S2            1 RES     
    2905 C1         103.0524   -66.8745   -57.5176 C1            1 RES     
    2906 C1         103.6078   -66.5781   -58.7672 C1            1 RES     
    2907 C1         106.8113   -66.1046   -57.3942 C1            1 RES     
    2908 C1         107.2459   -65.9568   -58.6749 C1            1 RES     
    2909 C1         108.6318   -65.8976   -58.7589 C1            1 RES     
    2910 C1         109.2085   -65.9712   -57.4798 C1            1 RES     
    2911 S2         108.0322   -66.1245   -56.2648 S2            1 RES     
    2912 H3         103.0409   -66.6805   -59.6729 H3            1 RES     
    2913 H3         109.1880   -65.8120   -59.6848 H3            1 RES     
    2914 N4         112.6178   -65.1127   -56.1798 N4            1 RES     
    2915 C1         111.2920   -65.0095   -56.4889 C1            1 RES     
    2916 C1         110.6344   -66.0416   -57.1804 C1            1 RES     
    2917 C1         111.3690   -67.1793   -57.5194 C1            1 RES     
    2918 N4         110.8428   -68.2690   -58.1351 N4            1 RES     
    2919 S2         112.1410   -69.2891   -58.2122 S2            1 RES     
    2920 N4         113.3634   -68.4271   -57.5042 N4            1 RES     
    2921 C1         112.7397   -67.2705   -57.1698 C1            1 RES     
    2922 C1         113.3545   -66.2112   -56.5075 C1            1 RES     
    2923 H5         110.7466   -64.1143   -56.2028 H5            1 RES     
    2924 C0         106.1259   -64.5003   -60.3909 C0            1 RES     
    2925 C0         106.4633   -63.0720   -59.8180 C0            1 RES     
    2926 C0         106.1912   -62.0811   -61.0039 C0            1 RES     
    2927 C0         106.5080   -60.6011   -60.7561 C0            1 RES     
    2928 C0         106.1534   -59.7137   -61.9725 C0            1 RES     
    2929 C0         106.9321   -60.0120   -63.2726 C0            1 RES     
    2930 C0         108.4642   -59.9732   -63.1336 C0            1 RES     
    2931 C0         108.9882   -58.6245   -62.6089 C0            1 RES     
    2932 C0         110.5116   -58.6072   -62.4180 C0            1 RES     
    2933 C0         111.2889   -58.7044   -63.7416 C0            1 RES     
    2934 C0         112.8079   -58.5708   -63.5490 C0            1 RES     
    2935 C0         113.4185   -59.7265   -62.7555 C0            1 RES     
    2936 C0         105.7927   -62.5945   -58.4885 C0            1 RES     
    2937 C0         104.2475   -62.3864   -58.4459 C0            1 RES     
    2938 C0         103.6534   -63.3009   -57.3704 C0            1 RES     
    2939 C0         102.1423   -63.5140   -57.3656 C0            1 RES     
    2940 C0         101.3048   -62.4092   -56.7385 C0            1 RES     
    2941 C0          99.8269   -62.8492   -56.7968 C0            1 RES     
    2942 C0          98.8668   -61.9337   -56.0338 C0            1 RES     
    2943 C0          99.0789   -62.0027   -54.5200 C0            1 RES     
    2944 H6         105.1765   -64.3763   -60.8459 H6            1 RES     
    2945 H6         106.8720   -64.6273   -61.2075 H6            1 RES     
    2946 H6         107.5543   -63.0678   -59.5983 H6            1 RES     
    2947 H6         105.1196   -62.1424   -61.2942 H6            1 RES     
    2948 H6         106.7940   -62.4204   -61.8734 H6            1 RES     
    2949 H6         107.5757   -60.4805   -60.4816 H6            1 RES     
    2950 H6         105.8879   -60.2311   -59.9147 H6            1 RES     
    2951 H6         106.3234   -58.6547   -61.6880 H6            1 RES     
    2952 H6         105.0670   -59.8098   -62.1926 H6            1 RES     
    2953 H6         106.6197   -59.2688   -64.0398 H6            1 RES     
    2954 H6         106.6450   -61.0130   -63.6598 H6            1 RES     
    2955 H6         108.7906   -60.7864   -62.4516 H6            1 RES     
    2956 H6         108.8916   -60.1807   -64.1365 H6            1 RES     
    2957 H6         108.5493   -58.4347   -61.6083 H6            1 RES     
    2958 H6         108.6795   -57.7999   -63.2882 H6            1 RES     
    2959 H6         110.7774   -57.6438   -61.9308 H6            1 RES     
    2960 H6         110.7912   -59.4333   -61.7310 H6            1 RES     
    2961 H6         111.0770   -59.6637   -64.2577 H6            1 RES     
    2962 H6         110.9569   -57.8715   -64.3990 H6            1 RES     
    2963 H6         113.0408   -57.6076   -63.0446 H6            1 RES     
    2964 H6         113.2836   -58.5582   -64.5534 H6            1 RES     
    2965 H6         113.0218   -59.7609   -61.7208 H6            1 RES     
    2966 H6         113.2092   -60.6922   -63.2629 H6            1 RES     
    2967 H6         114.5184   -59.5890   -62.6937 H6            1 RES     
    2968 H6         106.2536   -61.6226   -58.2104 H6            1 RES     
    2969 H6         106.1318   -63.2636   -57.6688 H6            1 RES     
    2970 H6         103.9978   -61.3338   -58.1835 H6            1 RES     
    2971 H6         103.8054   -62.6093   -59.4382 H6            1 RES     
    2972 H6         104.0342   -63.0606   -56.3554 H6            1 RES     
    2973 H6         104.0309   -64.2660   -57.6339 H6            1 RES     
    2974 H6         101.8088   -63.7304   -58.3835 H6            1 RES     
    2975 H6         101.9572   -64.4294   -56.7587 H6            1 RES     
    2976 H6         101.6434   -62.2977   -55.6866 H6            1 RES     
    2977 H6         101.4409   -61.4442   -57.2710 H6            1 RES     
    2978 H6          99.5197   -62.8800   -57.8668 H6            1 RES     
    2979 H6          99.7101   -63.8774   -56.3848 H6            1 RES     
    2980 H6          97.8313   -62.2838   -56.2395 H6            1 RES     
    2981 H6          98.9626   -60.8881   -56.3950 H6            1 RES     
    2982 H6         100.0816   -61.6296   -54.2326 H6            1 RES     
    2983 H6          98.3173   -61.3781   -54.0105 H6            1 RES     
    2984 H6          98.9662   -63.0516   -54.1655 H6            1 RES     
    2985 C0         106.0779   -67.0936   -60.7116 C0            1 RES     
    2986 C0         105.6671   -66.9882   -62.2499 C0            1 RES     
    2987 C0         105.2750   -68.4350   -62.7031 C0            1 RES     
    2988 C0         105.0971   -68.6322   -64.2221 C0            1 RES     
    2989 C0         104.6891   -70.0617   -64.6199 C0            1 RES     
    2990 C0         105.6775   -71.1734   -64.2247 C0            1 RES     
    2991 C0         107.1239   -70.9621   -64.7021 C0            1 RES     
    2992 C0         107.2480   -70.8020   -66.2276 C0            1 RES     
    2993 C0         108.6988   -70.5865   -66.6878 C0            1 RES     
    2994 C0         109.5899   -71.8201   -66.4564 C0            1 RES     
    2995 C0         111.0064   -71.6531   -67.0283 C0            1 RES     
    2996 C0         111.8162   -70.5633   -66.3256 C0            1 RES     
    2997 C0         104.6796   -65.9085   -62.8630 C0            1 RES     
    2998 C0         103.1604   -65.9000   -62.5315 C0            1 RES     
    2999 C0         102.7738   -64.7507   -61.5834 C0            1 RES     
    3000 C0         101.3200   -64.6896   -61.1446 C0            1 RES     
    3001 C0         100.3034   -64.2382   -62.1838 C0            1 RES     
    3002 C0          98.9504   -64.0911   -61.4581 C0            1 RES     
    3003 C0          97.8323   -63.4942   -62.3147 C0            1 RES     
    3004 C0          98.0894   -62.0280   -62.6658 C0            1 RES     
    3005 H6         105.5148   -67.9378   -60.2498 H6            1 RES     
    3006 H6         107.1047   -67.5240   -60.7331 H6            1 RES     
    3007 H6         106.6239   -66.7301   -62.7598 H6            1 RES     
    3008 H6         104.3318   -68.7313   -62.1953 H6            1 RES     
    3009 H6         106.0770   -69.1255   -62.3641 H6            1 RES     
    3010 H6         106.0337   -68.3413   -64.7424 H6            1 RES     
    3011 H6         104.2736   -67.9952   -64.5990 H6            1 RES     
    3012 H6         104.5498   -70.0790   -65.7219 H6            1 RES     
    3013 H6         103.7011   -70.2992   -64.1678 H6            1 RES     
    3014 H6         105.2935   -72.1323   -64.6367 H6            1 RES     
    3015 H6         105.6912   -71.2755   -63.1186 H6            1 RES     
    3016 H6         107.5523   -70.0660   -64.2043 H6            1 RES     
    3017 H6         107.7026   -71.8460   -64.3647 H6            1 RES     
    3018 H6         106.6762   -69.9040   -66.5420 H6            1 RES     
    3019 H6         106.8174   -71.6869   -66.7442 H6            1 RES     
    3020 H6         108.6775   -70.3744   -67.7790 H6            1 RES     
    3021 H6         109.1111   -69.6955   -66.1683 H6            1 RES     
    3022 H6         109.6701   -72.0562   -65.3753 H6            1 RES     
    3023 H6         109.1196   -72.6868   -66.9701 H6            1 RES     
    3024 H6         110.9498   -71.4335   -68.1166 H6            1 RES     
    3025 H6         111.5452   -72.6162   -66.8974 H6            1 RES     
    3026 H6         111.3556   -69.5646   -66.4657 H6            1 RES     
    3027 H6         111.8960   -70.7842   -65.2399 H6            1 RES     
    3028 H6         112.8388   -70.5314   -66.7568 H6            1 RES     
    3029 H6         104.7384   -66.0658   -63.9557 H6            1 RES     
    3030 H6         105.0942   -64.8830   -62.8540 H6            1 RES     
    3031 H6         102.6103   -65.6769   -63.4722 H6            1 RES     
    3032 H6         102.8255   -66.8967   -62.1793 H6            1 RES     
    3033 H6         103.0787   -63.7726   -62.0200 H6            1 RES     
    3034 H6         103.2892   -64.8682   -60.6368 H6            1 RES     
    3035 H6         101.0231   -65.6566   -60.6835 H6            1 RES     
    3036 H6         101.2912   -63.8989   -60.3768 H6            1 RES     
    3037 H6         100.6402   -63.2586   -62.5841 H6            1 RES     
    3038 H6         100.2292   -64.9681   -63.0167 H6            1 RES     
    3039 H6          98.6355   -65.0992   -61.1090 H6            1 RES     
    3040 H6          99.0632   -63.4439   -60.5579 H6            1 RES     
    3041 H6          96.8979   -63.5337   -61.7128 H6            1 RES     
    3042 H6          97.6895   -64.0993   -63.2319 H6            1 RES     
    3043 H6          98.9888   -61.9156   -63.3032 H6            1 RES     
    3044 H6          97.2175   -61.6263   -63.2217 H6            1 RES     
    3045 H6          98.2221   -61.4277   -61.7390 H6            1 RES     
    3046 C0         118.7762   -65.8189   -56.6798 C0            1 RES     
    3047 C1         117.3025   -66.0271   -56.2666 C1            1 RES     
    3048 C1         117.1845   -66.7103   -55.0985 C1            1 RES     
    3049 S2         115.5991   -67.0334   -54.6689 S2            1 RES     
    3050 C1         114.9970   -66.2952   -56.0772 C1            1 RES     
    3051 C1         116.0488   -65.8107   -56.8625 C1            1 RES     
    3052 C1         118.4748   -67.0499   -54.6376 C1            1 RES     
    3053 C1         119.3980   -66.6387   -55.5483 C1            1 RES     
    3054 C1         120.6814   -67.0662   -55.2296 C1            1 RES     
    3055 C1         120.6780   -67.7833   -54.0212 C1            1 RES     
    3056 S2         119.1172   -67.9050   -53.3637 S2            1 RES     
    3057 H3         115.8754   -65.3782   -57.8295 H3            1 RES     
    3058 H3         121.5601   -66.8760   -55.8341 H3            1 RES     
    3059 N4         123.4017   -68.7403   -51.6304 N4            1 RES     
    3060 C1         122.3622   -68.0585   -52.1950 C1            1 RES     
    3061 C1         121.8179   -68.4701   -53.4239 C1            1 RES     
    3062 C1         122.3546   -69.6048   -54.0348 C1            1 RES     
    3063 N4         121.8850   -70.1405   -55.1906 N4            1 RES     
    3064 S2         122.8483   -71.4706   -55.3773 S2            1 RES     
    3065 N4         123.8526   -71.4186   -54.0632 N4            1 RES     
    3066 C1         123.4209   -70.3066   -53.4185 C1            1 RES     
    3067 C1         123.9446   -69.8458   -52.2134 C1            1 RES     
    3068 H5         121.9615   -67.1843   -51.6893 H5            1 RES     
    3069 C0         119.3942   -64.3768   -56.6458 C0            1 RES     
    3070 C0         119.7871   -63.4648   -55.4228 C0            1 RES     
    3071 C0         120.2291   -62.0990   -56.0567 C0            1 RES     
    3072 C0         120.7425   -61.0222   -55.0928 C0            1 RES     
    3073 C0         121.0998   -59.7052   -55.8211 C0            1 RES     
    3074 C0         122.2391   -59.7986   -56.8599 C0            1 RES     
    3075 C0         123.5609   -60.3745   -56.3219 C0            1 RES     
    3076 C0         124.1216   -59.5828   -55.1271 C0            1 RES     
    3077 C0         125.4105   -60.1919   -54.5569 C0            1 RES     
    3078 C0         126.6022   -60.1031   -55.5251 C0            1 RES     
    3079 C0         127.9123   -60.6107   -54.9020 C0            1 RES     
    3080 C0         127.8900   -62.1072   -54.5883 C0            1 RES     
    3081 C0         118.7726   -63.2662   -54.2495 C0            1 RES     
    3082 C0         117.4225   -62.5351   -54.5244 C0            1 RES     
    3083 C0         116.2676   -63.4793   -54.1774 C0            1 RES     
    3084 C0         114.8695   -63.1115   -54.6661 C0            1 RES     
    3085 C0         114.1205   -62.0671   -53.8514 C0            1 RES     
    3086 C0         112.7266   -61.8855   -54.4880 C0            1 RES     
    3087 C0         111.7729   -61.0067   -53.6753 C0            1 RES     
    3088 C0         111.3530   -61.6674   -52.3606 C0            1 RES     
    3089 H6         118.7527   -63.7646   -57.2266 H6            1 RES     
    3090 H6         120.3526   -64.4776   -57.2035 H6            1 RES     
    3091 H6         120.6758   -63.9367   -54.9474 H6            1 RES     
    3092 H6         119.3727   -61.6590   -56.6130 H6            1 RES     
    3093 H6         121.0332   -62.3123   -56.7932 H6            1 RES     
    3094 H6         121.6147   -61.4042   -54.5242 H6            1 RES     
    3095 H6         119.9408   -60.7664   -54.3709 H6            1 RES     
    3096 H6         121.3746   -58.9510   -55.0549 H6            1 RES     
    3097 H6         120.1951   -59.3141   -56.3372 H6            1 RES     
    3098 H6         122.4258   -58.7769   -57.2596 H6            1 RES     
    3099 H6         121.9129   -60.4243   -57.7181 H6            1 RES     
    3100 H6         123.4045   -61.4324   -56.0229 H6            1 RES     
    3101 H6         124.2900   -60.3635   -57.1585 H6            1 RES     
    3102 H6         123.3792   -59.6040   -54.3035 H6            1 RES     
    3103 H6         124.2952   -58.5225   -55.4140 H6            1 RES     
    3104 H6         125.6701   -59.6255   -53.6360 H6            1 RES     
    3105 H6         125.2075   -61.2456   -54.2717 H6            1 RES     
    3106 H6         126.4030   -60.6757   -56.4546 H6            1 RES     
    3107 H6         126.7483   -59.0346   -55.7958 H6            1 RES     
    3108 H6         128.1357   -60.0384   -53.9752 H6            1 RES     
    3109 H6         128.7338   -60.4268   -55.6276 H6            1 RES     
    3110 H6         127.1223   -62.3493   -53.8260 H6            1 RES     
    3111 H6         127.6882   -62.6892   -55.5126 H6            1 RES     
    3112 H6         128.8781   -62.4127   -54.1848 H6            1 RES     
    3113 H6         119.2902   -62.6917   -53.4518 H6            1 RES     
    3114 H6         118.6054   -64.2518   -53.7646 H6            1 RES     
    3115 H6         117.3299   -61.6251   -53.8901 H6            1 RES     
    3116 H6         117.3679   -62.2226   -55.5870 H6            1 RES     
    3117 H6         116.2624   -63.7622   -53.1036 H6            1 RES     
    3118 H6         116.4941   -64.3602   -54.7395 H6            1 RES     
    3119 H6         114.9231   -62.8242   -55.7191 H6            1 RES     
    3120 H6         114.2632   -64.0442   -54.6115 H6            1 RES     
    3121 H6         114.0347   -62.4585   -52.8156 H6            1 RES     
    3122 H6         114.6647   -61.0992   -53.8330 H6            1 RES     
    3123 H6         112.8654   -61.4296   -55.4945 H6            1 RES     
    3124 H6         112.2329   -62.8734   -54.6326 H6            1 RES     
    3125 H6         110.8516   -60.8587   -54.2807 H6            1 RES     
    3126 H6         112.2318   -60.0138   -53.4850 H6            1 RES     
    3127 H6         112.2180   -61.8120   -51.6838 H6            1 RES     
    3128 H6         110.6116   -61.0251   -51.8435 H6            1 RES     
    3129 H6         110.8809   -62.6549   -52.5625 H6            1 RES     
    3130 C0         118.9026   -66.4886   -58.1050 C0            1 RES     
    3131 C0         119.1629   -65.7152   -59.4762 C0            1 RES     
    3132 C0         118.6702   -66.6646   -60.6199 C0            1 RES     
    3133 C0         119.0636   -66.2446   -62.0506 C0            1 RES     
    3134 C0         118.5388   -67.1925   -63.1433 C0            1 RES     
    3135 C0         119.0198   -68.6516   -63.0502 C0            1 RES     
    3136 C0         120.5451   -68.8338   -62.9820 C0            1 RES     
    3137 C0         121.2899   -68.2136   -64.1773 C0            1 RES     
    3138 C0         122.8135   -68.3999   -64.0915 C0            1 RES     
    3139 C0         123.2449   -69.8719   -64.2185 C0            1 RES     
    3140 C0         124.7708   -70.0488   -64.2588 C0            1 RES     
    3141 C0         125.4594   -69.6471   -62.9544 C0            1 RES     
    3142 C0         118.7611   -64.2087   -59.7694 C0            1 RES     
    3143 C0         117.2766   -63.7594   -59.8816 C0            1 RES     
    3144 C0         116.8141   -62.9528   -58.6550 C0            1 RES     
    3145 C0         115.3577   -62.5190   -58.6347 C0            1 RES     
    3146 C0         114.9579   -61.3974   -59.5830 C0            1 RES     
    3147 C0         113.4979   -61.0256   -59.2528 C0            1 RES     
    3148 C0         112.9681   -59.8042   -60.0062 C0            1 RES     
    3149 C0         113.6602   -58.5104   -59.5747 C0            1 RES     
    3150 H6         118.0317   -67.1713   -58.2411 H6            1 RES     
    3151 H6         119.7324   -67.2291   -58.0487 H6            1 RES     
    3152 H6         120.2743   -65.6664   -59.5431 H6            1 RES     
    3153 H6         117.5633   -66.7507   -60.5686 H6            1 RES     
    3154 H6         119.1001   -67.6721   -60.4330 H6            1 RES     
    3155 H6         120.1684   -66.1566   -62.1167 H6            1 RES     
    3156 H6         118.6175   -65.2623   -62.2996 H6            1 RES     
    3157 H6         118.8430   -66.7754   -64.1271 H6            1 RES     
    3158 H6         117.4267   -67.1920   -63.1247 H6            1 RES     
    3159 H6         118.6262   -69.1967   -63.9359 H6            1 RES     
    3160 H6         118.5753   -69.1272   -62.1499 H6            1 RES     
    3161 H6         120.9308   -68.3888   -62.0399 H6            1 RES     
    3162 H6         120.7335   -69.9261   -62.9425 H6            1 RES     
    3163 H6         121.1018   -67.1196   -64.1890 H6            1 RES     
    3164 H6         120.9122   -68.6416   -65.1309 H6            1 RES     
    3165 H6         123.2696   -67.8315   -64.9312 H6            1 RES     
    3166 H6         123.1750   -67.9608   -63.1374 H6            1 RES     
    3167 H6         122.8400   -70.4790   -63.3828 H6            1 RES     
    3168 H6         122.8345   -70.2707   -65.1719 H6            1 RES     
    3169 H6         125.1960   -69.4622   -65.1019 H6            1 RES     
    3170 H6         124.9870   -71.1235   -64.4416 H6            1 RES     
    3171 H6         125.3245   -68.5672   -62.7428 H6            1 RES     
    3172 H6         125.0558   -70.2426   -62.1079 H6            1 RES     
    3173 H6         126.5486   -69.8451   -63.0392 H6            1 RES     
    3174 H6         119.2075   -63.9884   -60.7565 H6            1 RES     
    3175 H6         119.3549   -63.4778   -59.1890 H6            1 RES     
    3176 H6         117.2041   -63.0399   -60.7268 H6            1 RES     
    3177 H6         116.6187   -64.6195   -60.1202 H6            1 RES     
    3178 H6         117.4744   -62.0686   -58.5045 H6            1 RES     
    3179 H6         116.8768   -63.5704   -57.7660 H6            1 RES     
    3180 H6         114.6975   -63.4051   -58.7571 H6            1 RES     
    3181 H6         115.2059   -62.0910   -57.6301 H6            1 RES     
    3182 H6         115.6327   -60.5362   -59.3926 H6            1 RES     
    3183 H6         115.0568   -61.7128   -60.6425 H6            1 RES     
    3184 H6         112.8565   -61.9017   -59.4939 H6            1 RES     
    3185 H6         113.3888   -60.8191   -58.1631 H6            1 RES     
    3186 H6         111.8890   -59.7041   -59.7561 H6            1 RES     
    3187 H6         113.0665   -59.9574   -61.0992 H6            1 RES     
    3188 H6         114.7382   -58.5223   -59.8311 H6            1 RES     
    3189 H6         113.1890   -57.6517   -60.0955 H6            1 RES     
    3190 H6         113.5481   -58.3608   -58.4783 H6            1 RES     
    3191 C0         128.9392   -71.4336   -50.7604 C0            1 RES     
    3192 C1         127.4153   -71.2164   -50.8890 C1            1 RES     
    3193 C1         126.7002   -72.1672   -50.2335 C1            1 RES     
    3194 S2         125.0448   -72.0141   -50.4294 S2            1 RES     
    3195 C1         125.2234   -70.6689   -51.4538 C1            1 RES     
    3196 C1         126.5779   -70.3642   -51.6279 C1            1 RES     
    3197 C1         127.5960   -73.0927   -49.6558 C1            1 RES     
    3198 C1         128.8687   -72.7609   -50.0037 C1            1 RES     
    3199 C1         129.7945   -73.7105   -49.5888 C1            1 RES     
    3200 C1         129.1586   -74.7466   -48.8842 C1            1 RES     
    3201 S2         127.4802   -74.5072   -48.7882 S2            1 RES     
    3202 H3         126.8983   -69.5927   -52.3020 H3            1 RES     
    3203 H3         130.8584   -73.6591   -49.7874 H3            1 RES     
    3204 N4         130.4400   -77.3977   -46.5648 N4            1 RES     
    3205 C1         129.8846   -76.2327   -47.0103 C1            1 RES     
    3206 C1         129.7896   -75.9639   -48.3867 C1            1 RES     
    3207 C1         130.2571   -76.9295   -49.2799 C1            1 RES     
    3208 N4         130.1727   -76.8206   -50.6307 N4            1 RES     
    3209 S2         130.8111   -78.2580   -51.1388 S2            1 RES     
    3210 N4         131.2036   -79.0354   -49.7317 N4            1 RES     
    3211 C1         130.8116   -78.1395   -48.7924 C1            1 RES     
    3212 C1         130.9084   -78.3500   -47.4194 C1            1 RES     
    3213 H5         129.5220   -75.5056   -46.2888 H5            1 RES     
    3214 C0         129.7970   -70.4260   -49.9169 C0            1 RES     
    3215 C0         129.8699   -70.2050   -48.3587 C0            1 RES     
    3216 C0         130.8158   -68.9679   -48.1652 C0            1 RES     
    3217 C0         131.1345   -68.5591   -46.7218 C0            1 RES     
    3218 C0         132.0311   -67.3005   -46.6529 C0            1 RES     
    3219 C0         133.4351   -67.4394   -47.2818 C0            1 RES     
    3220 C0         134.2764   -68.6071   -46.7369 C0            1 RES     
    3221 C0         134.4835   -68.5417   -45.2133 C0            1 RES     
    3222 C0         135.2754   -69.7373   -44.6647 C0            1 RES     
    3223 C0         136.7389   -69.7624   -45.1371 C0            1 RES     
    3224 C0         137.5515   -70.8963   -44.4920 C0            1 RES     
    3225 C0         137.0769   -72.2893   -44.9075 C0            1 RES     
    3226 C0         128.5479   -70.0674   -47.5351 C0            1 RES     
    3227 C0         127.6125   -68.8462   -47.7928 C0            1 RES     
    3228 C0         126.2361   -69.3588   -48.2272 C0            1 RES     
    3229 C0         125.2613   -68.3598   -48.8441 C0            1 RES     
    3230 C0         124.5044   -67.4649   -47.8737 C0            1 RES     
    3231 C0         123.5499   -66.5773   -48.6998 C0            1 RES     
    3232 C0         122.5744   -65.7497   -47.8598 C0            1 RES     
    3233 C0         121.5373   -66.6212   -47.1483 C0            1 RES     
    3234 H6         129.5879   -69.4613   -50.3033 H6            1 RES     
    3235 H6         130.8491   -70.6714   -50.1864 H6            1 RES     
    3236 H6         130.3723   -71.1026   -47.9339 H6            1 RES     
    3237 H6         130.3670   -68.0817   -48.6650 H6            1 RES     
    3238 H6         131.7754   -69.1921   -48.6785 H6            1 RES     
    3239 H6         131.6054   -69.4052   -46.1811 H6            1 RES     
    3240 H6         130.1923   -68.2940   -46.2010 H6            1 RES     
    3241 H6         132.1429   -67.0146   -45.5866 H6            1 RES     
    3242 H6         131.5126   -66.4527   -47.1533 H6            1 RES     
    3243 H6         133.9849   -66.4870   -47.1112 H6            1 RES     
    3244 H6         133.3420   -67.5636   -48.3819 H6            1 RES     
    3245 H6         133.7850   -69.5671   -47.0017 H6            1 RES     
    3246 H6         135.2579   -68.5755   -47.2538 H6            1 RES     
    3247 H6         133.4929   -68.5729   -44.7156 H6            1 RES     
    3248 H6         134.9860   -67.5902   -44.9326 H6            1 RES     
    3249 H6         135.2713   -69.6615   -43.5555 H6            1 RES     
    3250 H6         134.7489   -70.6717   -44.9516 H6            1 RES     
    3251 H6         136.7989   -69.8627   -46.2407 H6            1 RES     
    3252 H6         137.2122   -68.7993   -44.8461 H6            1 RES     
    3253 H6         137.5141   -70.8042   -43.3845 H6            1 RES     
    3254 H6         138.6103   -70.7875   -44.8117 H6            1 RES     
    3255 H6         136.0388   -72.4807   -44.5687 H6            1 RES     
    3256 H6         137.1305   -72.3986   -46.0115 H6            1 RES     
    3257 H6         137.7330   -73.0547   -44.4426 H6            1 RES     
    3258 H6         128.8243   -70.0366   -46.4594 H6            1 RES     
    3259 H6         127.9900   -71.0253   -47.6115 H6            1 RES     
    3260 H6         127.4825   -68.2455   -46.8647 H6            1 RES     
    3261 H6         128.0499   -68.1888   -48.5714 H6            1 RES     
    3262 H6         125.7475   -69.9725   -47.4413 H6            1 RES     
    3263 H6         126.4638   -70.0083   -49.0454 H6            1 RES     
    3264 H6         125.7860   -67.7672   -49.5976 H6            1 RES     
    3265 H6         124.4919   -68.9623   -49.3786 H6            1 RES     
    3266 H6         123.9346   -68.1297   -47.1904 H6            1 RES     
    3267 H6         125.1974   -66.8345   -47.2774 H6            1 RES     
    3268 H6         124.1698   -65.8863   -49.3151 H6            1 RES     
    3269 H6         122.9471   -67.1998   -49.3996 H6            1 RES     
    3270 H6         122.0223   -65.0750   -48.5505 H6            1 RES     
    3271 H6         123.1294   -65.1259   -47.1279 H6            1 RES     
    3272 H6         122.0119   -67.2970   -46.4098 H6            1 RES     
    3273 H6         120.8149   -65.9735   -46.6114 H6            1 RES     
    3274 H6         120.9763   -67.2315   -47.8910 H6            1 RES     
    3275 C0         129.4629   -71.5657   -52.2450 C0            1 RES     
    3276 C0         130.4046   -70.5188   -52.9955 C0            1 RES     
    3277 C0         130.2031   -70.7630   -54.5292 C0            1 RES     
    3278 C0         131.2088   -70.0497   -55.4553 C0            1 RES     
    3279 C0         130.9590   -70.2984   -56.9533 C0            1 RES     
    3280 C0         131.0286   -71.7673   -57.4078 C0            1 RES     
    3281 C0         132.3232   -72.5071   -57.0320 C0            1 RES     
    3282 C0         133.5945   -71.8309   -57.5747 C0            1 RES     
    3283 C0         134.8797   -72.5796   -57.1862 C0            1 RES     
    3284 C0         134.9885   -73.9653   -57.8473 C0            1 RES     
    3285 C0         136.3273   -74.6633   -57.5613 C0            1 RES     
    3286 C0         136.5193   -75.0196   -56.0871 C0            1 RES     
    3287 C0         130.4947   -68.9688   -52.6693 C0            1 RES     
    3288 C0         129.3131   -67.9981   -52.9511 C0            1 RES     
    3289 C0         128.5976   -67.5560   -51.6620 C0            1 RES     
    3290 C0         127.3855   -66.6547   -51.8306 C0            1 RES     
    3291 C0         127.6492   -65.2114   -52.2363 C0            1 RES     
    3292 C0         126.2986   -64.4695   -52.1697 C0            1 RES     
    3293 C0         126.3919   -62.9598   -52.3982 C0            1 RES     
    3294 C0         127.1271   -62.2450   -51.2635 C0            1 RES     
    3295 H6         128.5875   -71.7893   -52.8983 H6            1 RES     
    3296 H6         130.0174   -72.5288   -52.3143 H6            1 RES     
    3297 H6         131.4338   -70.8607   -52.7389 H6            1 RES     
    3298 H6         129.1758   -70.4495   -54.8148 H6            1 RES     
    3299 H6         130.2904   -71.8555   -54.7129 H6            1 RES     
    3300 H6         132.2405   -70.3555   -55.1820 H6            1 RES     
    3301 H6         131.1259   -68.9515   -55.3403 H6            1 RES     
    3302 H6         131.7090   -69.7094   -57.5232 H6            1 RES     
    3303 H6         129.9590   -69.8970   -57.2289 H6            1 RES     
    3304 H6         130.9040   -71.7878   -58.5126 H6            1 RES     
    3305 H6         130.1732   -72.3265   -56.9723 H6            1 RES     
    3306 H6         132.3964   -72.5897   -55.9265 H6            1 RES     
    3307 H6         132.2339   -73.5333   -57.4430 H6            1 RES     
    3308 H6         133.6735   -70.8129   -57.1392 H6            1 RES     
    3309 H6         133.5366   -71.7325   -58.6804 H6            1 RES     
    3310 H6         135.7422   -71.9654   -57.5251 H6            1 RES     
    3311 H6         134.9254   -72.6627   -56.0795 H6            1 RES     
    3312 H6         134.1646   -74.6304   -57.5159 H6            1 RES     
    3313 H6         134.9079   -73.8299   -58.9480 H6            1 RES     
    3314 H6         137.1677   -74.0208   -57.9030 H6            1 RES     
    3315 H6         136.3540   -75.6077   -58.1466 H6            1 RES     
    3316 H6         136.5551   -74.1105   -55.4536 H6            1 RES     
    3317 H6         135.6949   -75.6787   -55.7410 H6            1 RES     
    3318 H6         137.4810   -75.5603   -55.9632 H6            1 RES     
    3319 H6         131.3293   -68.6008   -53.2938 H6            1 RES     
    3320 H6         130.9590   -68.7557   -51.6881 H6            1 RES     
    3321 H6         129.7394   -67.0578   -53.3650 H6            1 RES     
    3322 H6         128.6288   -68.4176   -53.7162 H6            1 RES     
    3323 H6         129.3239   -67.0861   -50.9605 H6            1 RES     
    3324 H6         128.1679   -68.4199   -51.1673 H6            1 RES     
    3325 H6         126.6479   -67.1359   -52.5090 H6            1 RES     
    3326 H6         126.9507   -66.5767   -50.8205 H6            1 RES     
    3327 H6         128.3677   -64.7805   -51.5073 H6            1 RES     
    3328 H6         128.0834   -65.1538   -53.2561 H6            1 RES     
    3329 H6         125.6265   -64.9081   -52.9398 H6            1 RES     
    3330 H6         125.8194   -64.6279   -51.1761 H6            1 RES     
    3331 H6         125.3527   -62.5645   -52.4229 H6            1 RES     
    3332 H6         126.8747   -62.7504   -53.3734 H6            1 RES     
    3333 H6         128.1874   -62.5615   -51.2047 H6            1 RES     
    3334 H6         127.1010   -61.1505   -51.4426 H6            1 RES     
    3335 H6         126.6300   -62.4537   -50.2908 H6            1 RES     
    3336 C0         134.4453   -82.0538   -45.5890 C0            1 RES     
    3337 C1         133.1835   -81.2635   -46.0001 C1            1 RES     
    3338 C1         132.0772   -82.0495   -46.0592 C1            1 RES     
    3339 S2         130.7102   -81.2430   -46.5912 S2            1 RES     
    3340 C1         131.5697   -79.7922   -46.8088 C1            1 RES     
    3341 C1         132.9146   -79.9650   -46.4641 C1            1 RES     
    3342 C1         132.4452   -83.3769   -45.7504 C1            1 RES     
    3343 C1         133.7914   -83.4362   -45.5630 C1            1 RES     
    3344 C1         134.2447   -84.7392   -45.3961 C1            1 RES     
    3345 C1         133.1710   -85.6448   -45.4311 C1            1 RES     
    3346 S2         131.6880   -84.8563   -45.6813 S2            1 RES     
    3347 H3         133.6361   -79.1828   -46.6055 H3            1 RES     
    3348 H3         135.2838   -85.0158   -45.2630 H3            1 RES     
    3349 N4         132.8174   -89.2064   -44.3174 N4            1 RES     
    3350 C1         132.7545   -87.8425   -44.3158 C1            1 RES     
    3351 C1         133.2694   -87.0996   -45.3922 C1            1 RES     
    3352 C1         133.8233   -87.7962   -46.4678 C1            1 RES     
    3353 N4         134.3021   -87.2042   -47.5920 N4            1 RES     
    3354 S2         134.7529   -88.5040   -48.5079 S2            1 RES     
    3355 N4         134.3790   -89.8059   -47.5573 N4            1 RES     
    3356 C1         133.8589   -89.2132   -46.4542 C1            1 RES     
    3357 C1         133.3600   -89.9051   -45.3538 C1            1 RES     
    3358 H5         132.3089   -87.3310   -43.4670 H5            1 RES     
    3359 C0         135.1033   -81.7894   -44.1891 C0            1 RES     
    3360 C0         134.6060   -82.1638   -42.7419 C0            1 RES     
    3361 C0         135.6486   -81.5087   -41.7691 C0            1 RES     
    3362 C0         135.4573   -81.7714   -40.2702 C0            1 RES     
    3363 C0         136.5096   -81.0364   -39.4069 C0            1 RES     
    3364 C0         137.9789   -81.4533   -39.6374 C0            1 RES     
    3365 C0         138.2574   -82.9586   -39.4806 C0            1 RES     
    3366 C0         137.8590   -83.5048   -38.0981 C0            1 RES     
    3367 C0         138.0858   -85.0175   -37.9636 C0            1 RES     
    3368 C0         139.5721   -85.4119   -37.9937 C0            1 RES     
    3369 C0         139.7932   -86.9123   -37.7436 C0            1 RES     
    3370 C0         139.2239   -87.7981   -38.8525 C0            1 RES     
    3371 C0         133.1331   -81.8455   -42.3245 C0            1 RES     
    3372 C0         132.6698   -80.3588   -42.2370 C0            1 RES     
    3373 C0         131.4978   -80.1471   -43.2002 C0            1 RES     
    3374 C0         131.0910   -78.7137   -43.5299 C0            1 RES     
    3375 C0         130.2328   -77.9988   -42.4964 C0            1 RES     
    3376 C0         129.9016   -76.5968   -43.0494 C0            1 RES     
    3377 C0         128.8844   -75.8150   -42.2150 C0            1 RES     
    3378 C0         127.4863   -76.4338   -42.2749 C0            1 RES     
    3379 H6         135.2820   -80.7458   -44.1369 H6            1 RES     
    3380 H6         136.0940   -82.2936   -44.2538 H6            1 RES     
    3381 H6         134.6889   -83.2702   -42.6541 H6            1 RES     
    3382 H6         135.6404   -80.4059   -41.9119 H6            1 RES     
    3383 H6         136.6569   -81.8764   -42.0563 H6            1 RES     
    3384 H6         135.4781   -82.8617   -40.0686 H6            1 RES     
    3385 H6         134.4705   -81.3772   -39.9537 H6            1 RES     
    3386 H6         136.2543   -81.1990   -38.3394 H6            1 RES     
    3387 H6         136.4308   -79.9411   -39.5859 H6            1 RES     
    3388 H6         138.6138   -80.8910   -38.9169 H6            1 RES     
    3389 H6         138.2999   -81.1462   -40.6557 H6            1 RES     
    3390 H6         137.7100   -83.5163   -40.2695 H6            1 RES     
    3391 H6         139.3435   -83.1122   -39.6494 H6            1 RES     
    3392 H6         136.7724   -83.3409   -37.9478 H6            1 RES     
    3393 H6         138.4082   -82.9640   -37.2965 H6            1 RES     
    3394 H6         137.6637   -85.3340   -36.9849 H6            1 RES     
    3395 H6         137.5213   -85.5325   -38.7690 H6            1 RES     
    3396 H6         140.0364   -85.1390   -38.9639 H6            1 RES     
    3397 H6         140.0938   -84.8540   -37.1857 H6            1 RES     
    3398 H6         139.3456   -87.2019   -36.7678 H6            1 RES     
    3399 H6         140.8879   -87.0956   -37.6891 H6            1 RES     
    3400 H6         138.1218   -87.7002   -38.9226 H6            1 RES     
    3401 H6         139.6807   -87.5304   -39.8289 H6            1 RES     
    3402 H6         139.4576   -88.8603   -38.6304 H6            1 RES     
    3403 H6         132.9646   -82.2921   -41.3212 H6            1 RES     
    3404 H6         132.4529   -82.4421   -42.9693 H6            1 RES     
    3405 H6         132.3227   -80.1131   -41.2083 H6            1 RES     
    3406 H6         133.5114   -79.6819   -42.4885 H6            1 RES     
    3407 H6         130.6174   -80.7700   -42.9362 H6            1 RES     
    3408 H6         131.8783   -80.5087   -44.1318 H6            1 RES     
    3409 H6         131.9864   -78.1335   -43.7664 H6            1 RES     
    3410 H6         130.4805   -78.7675   -44.4598 H6            1 RES     
    3411 H6         129.3088   -78.6006   -42.3644 H6            1 RES     
    3412 H6         130.7572   -77.9144   -41.5212 H6            1 RES     
    3413 H6         130.8494   -76.0142   -43.0986 H6            1 RES     
    3414 H6         129.5000   -76.6717   -44.0857 H6            1 RES     
    3415 H6         128.8120   -74.7910   -42.6432 H6            1 RES     
    3416 H6         129.2310   -75.7324   -41.1633 H6            1 RES     
    3417 H6         127.4706   -77.4468   -41.8267 H6            1 RES     
    3418 H6         126.7743   -75.7952   -41.7138 H6            1 RES     
    3419 H6         127.1417   -76.4987   -43.3312 H6            1 RES     
    3420 C0         135.4661   -81.8465   -46.7767 C0            1 RES     
    3421 C0         136.8332   -81.0276   -46.6958 C0            1 RES     
    3422 C0         137.2010   -80.6345   -48.1663 C0            1 RES     
    3423 C0         138.6202   -80.0665   -48.3691 C0            1 RES     
    3424 C0         138.9299   -79.6719   -49.8240 C0            1 RES     
    3425 C0         138.8449   -80.8091   -50.8577 C0            1 RES     
    3426 C0         139.6893   -82.0525   -50.5324 C0            1 RES     
    3427 C0         141.1870   -81.7464   -50.3555 C0            1 RES     
    3428 C0         142.0159   -82.9984   -50.0259 C0            1 RES     
    3429 C0         142.0655   -84.0067   -51.1878 C0            1 RES     
    3430 C0         142.9938   -85.1990   -50.9086 C0            1 RES     
    3431 C0         142.5078   -86.0868   -49.7629 C0            1 RES     
    3432 C0         137.1290   -79.8345   -45.6928 C0            1 RES     
    3433 C0         136.3998   -78.4656   -45.8039 C0            1 RES     
    3434 C0         135.3532   -78.2673   -44.6927 C0            1 RES     
    3435 C0         134.5370   -76.9864   -44.7467 C0            1 RES     
    3436 C0         135.2514   -75.6959   -44.3703 C0            1 RES     
    3437 C0         134.1839   -74.5833   -44.3322 C0            1 RES     
    3438 C0         134.6913   -73.2343   -43.8196 C0            1 RES     
    3439 C0         135.0608   -73.2784   -42.3361 C0            1 RES     
    3440 H6         134.8914   -81.4931   -47.6644 H6            1 RES     
    3441 H6         135.7749   -82.8577   -47.1260 H6            1 RES     
    3442 H6         137.5755   -81.7888   -46.3617 H6            1 RES     
    3443 H6         136.4654   -79.8886   -48.5374 H6            1 RES     
    3444 H6         137.1089   -81.5467   -48.7942 H6            1 RES     
    3445 H6         139.3662   -80.8031   -48.0039 H6            1 RES     
    3446 H6         138.7444   -79.1273   -47.7960 H6            1 RES     
    3447 H6         139.9536   -79.2408   -49.8465 H6            1 RES     
    3448 H6         138.2343   -78.8635   -50.1396 H6            1 RES     
    3449 H6         139.1627   -80.3992   -51.8413 H6            1 RES     
    3450 H6         137.7865   -81.1295   -50.9639 H6            1 RES     
    3451 H6         139.3026   -82.5329   -49.6083 H6            1 RES     
    3452 H6         139.5435   -82.7641   -51.3705 H6            1 RES     
    3453 H6         141.3121   -81.0466   -49.5030 H6            1 RES     
    3454 H6         141.5909   -81.2580   -51.2686 H6            1 RES     
    3455 H6         143.0550   -82.6666   -49.8107 H6            1 RES     
    3456 H6         141.6041   -83.4695   -49.1083 H6            1 RES     
    3457 H6         141.0526   -84.3940   -51.4224 H6            1 RES     
    3458 H6         142.4554   -83.4796   -52.0858 H6            1 RES     
    3459 H6         144.0205   -84.8337   -50.6886 H6            1 RES     
    3460 H6         143.0380   -85.8223   -51.8277 H6            1 RES     
    3461 H6         142.4926   -85.5337   -48.8022 H6            1 RES     
    3462 H6         141.4900   -86.4739   -49.9823 H6            1 RES     
    3463 H6         143.1980   -86.9492   -49.6496 H6            1 RES     
    3464 H6         138.2007   -79.6064   -45.8397 H6            1 RES     
    3465 H6         137.2058   -80.1598   -44.6383 H6            1 RES     
    3466 H6         137.1511   -77.6664   -45.6194 H6            1 RES     
    3467 H6         135.9962   -78.3128   -46.8253 H6            1 RES     
    3468 H6         135.8304   -78.3699   -43.6917 H6            1 RES     
    3469 H6         134.5841   -79.0271   -44.7747 H6            1 RES     
    3470 H6         134.0380   -76.8973   -45.7361 H6            1 RES     
    3471 H6         133.7698   -77.1089   -43.9645 H6            1 RES     
    3472 H6         135.7022   -75.8390   -43.3656 H6            1 RES     
    3473 H6         136.0519   -75.4526   -45.0996 H6            1 RES     
    3474 H6         133.7889   -74.4496   -45.3634 H6            1 RES     
    3475 H6         133.3311   -74.8881   -43.6828 H6            1 RES     
    3476 H6         133.8608   -72.5035   -43.9344 H6            1 RES     
    3477 H6         135.5513   -72.8930   -44.4293 H6            1 RES     
    3478 H6         135.9142   -73.9606   -42.1511 H6            1 RES     
    3479 H6         135.3503   -72.2615   -42.0004 H6            1 RES     
    3480 H6         134.1891   -73.6130   -41.7319 H6            1 RES     
    3481 C0         134.9786   -95.0333   -44.5414 C0            1 RES     
    3482 C1         134.1886   -93.7462   -44.8652 C1            1 RES     
    3483 C1         133.0500   -93.9995   -45.5614 C1            1 RES     
    3484 S2         132.2171   -92.6180   -46.0086 S2            1 RES     
    3485 C1         133.3912   -91.6044   -45.3123 C1            1 RES     
    3486 C1         134.4183   -92.3656   -44.7438 C1            1 RES     
    3487 C1         132.9633   -95.3877   -45.8023 C1            1 RES     
    3488 C1         134.0784   -95.9969   -45.3162 C1            1 RES     
    3489 C1         134.1289   -97.3463   -45.6444 C1            1 RES     
    3490 C1         132.9834   -97.7231   -46.3657 C1            1 RES     
    3491 S2         131.9325   -96.4122   -46.6113 S2            1 RES     
    3492 H3         135.2912   -91.9053   -44.3212 H3            1 RES     
    3493 H3         134.9430   -98.0120   -45.3836 H3            1 RES     
    3494 N4         131.4417  -101.0554   -47.1205 N4            1 RES     
    3495 C1         131.6871   -99.8547   -46.5186 C1            1 RES     
    3496 C1         132.7337   -99.0294   -46.9650 C1            1 RES     
    3497 C1         133.4959   -99.4621   -48.0515 C1            1 RES     
    3498 N4         134.4956   -98.7375   -48.6163 N4            1 RES     
    3499 S2         134.9695   -99.7088   -49.8667 S2            1 RES     
    3500 N4         133.9742  -101.0251   -49.7436 N4            1 RES     
    3501 C1         133.2085  -100.7040   -48.6717 C1            1 RES     
    3502 C1         132.1779  -101.4994   -48.1777 C1            1 RES     
    3503 H5         131.0696   -99.5431   -45.6806 H5            1 RES     
    3504 C0         135.0754   -95.5300   -43.0559 C0            1 RES     
    3505 C0         133.9806   -96.1717   -42.1223 C0            1 RES     
    3506 C0         134.6748   -96.3240   -40.7232 C0            1 RES     
    3507 C0         133.8577   -96.9991   -39.6147 C0            1 RES     
    3508 C0         134.6212   -97.0482   -38.2702 C0            1 RES     
    3509 C0         135.9309   -97.8669   -38.2699 C0            1 RES     
    3510 C0         135.7845   -99.3236   -38.7442 C0            1 RES     
    3511 C0         134.7653  -100.1275   -37.9174 C0            1 RES     
    3512 C0         134.5799  -101.5637   -38.4276 C0            1 RES     
    3513 C0         135.8312  -102.4386   -38.2418 C0            1 RES     
    3514 C0         135.5980  -103.9021   -38.6494 C0            1 RES     
    3515 C0         135.3287  -104.0754   -40.1446 C0            1 RES     
    3516 C0         132.5724   -95.5014   -42.0089 C0            1 RES     
    3517 C0         132.4539   -94.0776   -41.3833 C0            1 RES     
    3518 C0         131.8325   -93.1323   -42.4159 C0            1 RES     
    3519 C0         131.9163   -91.6310   -42.1551 C0            1 RES     
    3520 C0         130.9030   -91.0564   -41.1760 C0            1 RES     
    3521 C0         131.1349   -89.5327   -41.1000 C0            1 RES     
    3522 C0         130.0727   -88.7733   -40.3019 C0            1 RES     
    3523 C0         128.7109   -88.7749   -40.9997 C0            1 RES     
    3524 H6         135.4456   -94.7120   -42.4924 H6            1 RES     
    3525 H6         135.8734   -96.3061   -43.0793 H6            1 RES     
    3526 H6         133.7750   -97.1881   -42.5262 H6            1 RES     
    3527 H6         134.9678   -95.3190   -40.3482 H6            1 RES     
    3528 H6         135.6062   -96.9118   -40.8698 H6            1 RES     
    3529 H6         133.5555   -98.0183   -39.9307 H6            1 RES     
    3530 H6         132.9399   -96.4066   -39.4254 H6            1 RES     
    3531 H6         133.9384   -97.4643   -37.5009 H6            1 RES     
    3532 H6         134.8637   -96.0113   -37.9479 H6            1 RES     
    3533 H6         136.3396   -97.8629   -37.2348 H6            1 RES     
    3534 H6         136.6851   -97.3671   -38.9146 H6            1 RES     
    3535 H6         135.4818   -99.3320   -39.8125 H6            1 RES     
    3536 H6         136.7863   -99.7958   -38.6725 H6            1 RES     
    3537 H6         133.7727   -99.6397   -38.0002 H6            1 RES     
    3538 H6         135.0610  -100.1387   -36.8454 H6            1 RES     
    3539 H6         133.7490  -102.0209   -37.8474 H6            1 RES     
    3540 H6         134.2779  -101.5234   -39.4952 H6            1 RES     
    3541 H6         136.6869  -102.0375   -38.8235 H6            1 RES     
    3542 H6         136.1035  -102.4272   -37.1639 H6            1 RES     
    3543 H6         134.7514  -104.3257   -38.0661 H6            1 RES     
    3544 H6         136.5134  -104.4804   -38.3987 H6            1 RES     
    3545 H6         134.3940  -103.5629   -40.4493 H6            1 RES     
    3546 H6         136.1789  -103.6739   -40.7359 H6            1 RES     
    3547 H6         135.2148  -105.1555   -40.3746 H6            1 RES     
    3548 H6         131.9294   -96.1723   -41.3999 H6            1 RES     
    3549 H6         132.0860   -95.5446   -43.0069 H6            1 RES     
    3550 H6         131.7948   -94.0938   -40.4864 H6            1 RES     
    3551 H6         133.4539   -93.7142   -41.0706 H6            1 RES     
    3552 H6         130.8049   -93.4391   -42.7037 H6            1 RES     
    3553 H6         132.4575   -93.2620   -43.2737 H6            1 RES     
    3554 H6         132.9369   -91.3761   -41.8594 H6            1 RES     
    3555 H6         131.7242   -91.1323   -43.1323 H6            1 RES     
    3556 H6         129.8929   -91.2835   -41.5782 H6            1 RES     
    3557 H6         131.0072   -91.5128   -40.1690 H6            1 RES     
    3558 H6         132.1294   -89.3598   -40.6296 H6            1 RES     
    3559 H6         131.1664   -89.0921   -42.1224 H6            1 RES     
    3560 H6         130.4030   -87.7141   -40.2227 H6            1 RES     
    3561 H6         129.9877   -89.1925   -39.2773 H6            1 RES     
    3562 H6         128.2966   -89.7992   -41.0801 H6            1 RES     
    3563 H6         127.9966   -88.1564   -40.4193 H6            1 RES     
    3564 H6         128.8034   -88.3395   -42.0198 H6            1 RES     
    3565 C0         136.4018   -94.8175   -45.1921 C0            1 RES     
    3566 C0         137.7720   -94.6390   -44.3940 C0            1 RES     
    3567 C0         138.7644   -93.9257   -45.3731 C0            1 RES     
    3568 C0         140.2368   -93.8849   -44.9166 C0            1 RES     
    3569 C0         141.1716   -93.1545   -45.8969 C0            1 RES     
    3570 C0         141.2493   -93.7483   -47.3147 C0            1 RES     
    3571 C0         141.6000   -95.2441   -47.3785 C0            1 RES     
    3572 C0         142.9355   -95.5896   -46.6963 C0            1 RES     
    3573 C0         143.2688   -97.0888   -46.7644 C0            1 RES     
    3574 C0         143.5455   -97.5763   -48.1979 C0            1 RES     
    3575 C0         144.0005   -99.0428   -48.2558 C0            1 RES     
    3576 C0         142.9204  -100.0279   -47.8084 C0            1 RES     
    3577 C0         137.9069   -94.0635   -42.9217 C0            1 RES     
    3578 C0         137.6027   -92.5754   -42.5884 C0            1 RES     
    3579 C0         136.2764   -92.4048   -41.8262 C0            1 RES     
    3580 C0         135.8527   -90.9807   -41.5068 C0            1 RES     
    3581 C0         136.6286   -90.2578   -40.4148 C0            1 RES     
    3582 C0         135.9073   -88.9187   -40.1590 C0            1 RES     
    3583 C0         136.4580   -88.1165   -38.9786 C0            1 RES     
    3584 C0         136.1960   -88.8029   -37.6372 C0            1 RES     
    3585 H6         136.3154   -93.9948   -45.9396 H6            1 RES     
    3586 H6         136.5906   -95.6834   -45.8663 H6            1 RES     
    3587 H6         138.1350   -95.6840   -44.2589 H6            1 RES     
    3588 H6         138.4186   -92.8835   -45.5449 H6            1 RES     
    3589 H6         138.7265   -94.4629   -46.3451 H6            1 RES     
    3590 H6         140.5963   -94.9208   -44.7428 H6            1 RES     
    3591 H6         140.3309   -93.3172   -43.9706 H6            1 RES     
    3592 H6         142.1898   -93.1493   -45.4525 H6            1 RES     
    3593 H6         140.8535   -92.0921   -45.9827 H6            1 RES     
    3594 H6         142.0098   -93.1705   -47.8843 H6            1 RES     
    3595 H6         140.2752   -93.6006   -47.8279 H6            1 RES     
    3596 H6         140.7858   -95.8370   -46.9096 H6            1 RES     
    3597 H6         141.6410   -95.5157   -48.4530 H6            1 RES     
    3598 H6         142.8677   -95.3257   -45.6203 H6            1 RES     
    3599 H6         143.7626   -95.0000   -47.1477 H6            1 RES     
    3600 H6         144.1854   -97.2573   -46.1582 H6            1 RES     
    3601 H6         142.4366   -97.6622   -46.3034 H6            1 RES     
    3602 H6         142.6475   -97.4586   -48.8388 H6            1 RES     
    3603 H6         144.3627   -96.9533   -48.6225 H6            1 RES     
    3604 H6         144.9117   -99.1795   -47.6337 H6            1 RES     
    3605 H6         144.2626   -99.2797   -49.3095 H6            1 RES     
    3606 H6         142.6524   -99.8766   -46.7433 H6            1 RES     
    3607 H6         142.0121   -99.9135   -48.4376 H6            1 RES     
    3608 H6         143.3010  -101.0648   -47.9209 H6            1 RES     
    3609 H6         138.9718   -94.2083   -42.6625 H6            1 RES     
    3610 H6         137.4896   -94.7372   -42.1499 H6            1 RES     
    3611 H6         138.3781   -92.2240   -41.8724 H6            1 RES     
    3612 H6         137.6771   -91.9424   -43.4957 H6            1 RES     
    3613 H6         136.2869   -93.0145   -40.8942 H6            1 RES     
    3614 H6         135.4536   -92.7512   -42.4416 H6            1 RES     
    3615 H6         135.8152   -90.3788   -42.4407 H6            1 RES     
    3616 H6         134.8337   -91.0759   -41.0968 H6            1 RES     
    3617 H6         136.6052   -90.8939   -39.5048 H6            1 RES     
    3618 H6         137.6834   -90.0886   -40.7163 H6            1 RES     
    3619 H6         135.9889   -88.3020   -41.0810 H6            1 RES     
    3620 H6         134.8236   -89.0941   -39.9670 H6            1 RES     
    3621 H6         135.9236   -87.1413   -38.9637 H6            1 RES     
    3622 H6         137.5406   -87.9260   -39.1183 H6            1 RES     
    3623 H6         136.7340   -89.7689   -37.5642 H6            1 RES     
    3624 H6         136.5480   -88.1466   -36.8151 H6            1 RES     
    3625 H6         135.1066   -88.9815   -37.5022 H6            1 RES     
    3626 C0         132.1680  -106.8033   -49.3807 C0            1 RES     
    3627 C1         131.8750  -105.2900   -49.2816 C1            1 RES     
    3628 C1         131.0756  -104.8510   -50.2883 C1            1 RES     
    3629 S2         130.8135  -103.1977   -50.2630 S2            1 RES     
    3630 C1         131.8130  -102.9930   -48.9029 C1            1 RES     
    3631 C1         132.3383  -104.2235   -48.4932 C1            1 RES     
    3632 C1         130.7851  -105.9351   -51.1444 C1            1 RES     
    3633 C1         131.4549  -107.0380   -50.7132 C1            1 RES     
    3634 C1         131.3298  -108.1087   -51.5902 C1            1 RES     
    3635 C1         130.5067  -107.7651   -52.6760 C1            1 RES     
    3636 S2         129.9553  -106.1627   -52.5679 S2            1 RES     
    3637 H3         133.0537  -104.2918   -47.6958 H3            1 RES     
    3638 H3         131.8067  -109.0721   -51.4554 H3            1 RES     
    3639 N4         128.6883  -109.8179   -55.2314 N4            1 RES     
    3640 C1         128.9372  -109.0787   -54.1107 C1            1 RES     
    3641 C1         130.2296  -108.5948   -53.8432 C1            1 RES     
    3642 C1         131.2404  -108.8722   -54.7652 C1            1 RES     
    3643 N4         132.5150  -108.4172   -54.6564 N4            1 RES     
    3644 S2         133.2135  -108.9976   -56.0374 S2            1 RES     
    3645 N4         131.9851  -109.8126   -56.7891 N4            1 RES     
    3646 C1         130.9520  -109.6253   -55.9310 C1            1 RES     
    3647 C1         129.6620  -110.1057   -56.1402 C1            1 RES     
    3648 H5         128.1262  -108.8730   -53.4175 H5            1 RES     
    3649 C0         131.5614  -107.7814   -48.3138 C0            1 RES     
    3650 C0         130.0756  -108.2574   -48.0956 C0            1 RES     
    3651 C0         130.1126  -109.1271   -46.7899 C0            1 RES     
    3652 C0         128.7987  -109.7942   -46.3648 C0            1 RES     
    3653 C0         128.9418  -110.5811   -45.0408 C0            1 RES     
    3654 C0         129.9295  -111.7684   -45.0673 C0            1 RES     
    3655 C0         129.6623  -112.8091   -46.1690 C0            1 RES     
    3656 C0         128.2499  -113.4160   -46.0954 C0            1 RES     
    3657 C0         127.9664  -114.4124   -47.2287 C0            1 RES     
    3658 C0         128.8166  -115.6908   -47.1378 C0            1 RES     
    3659 C0         128.4441  -116.7287   -48.2086 C0            1 RES     
    3660 C0         128.7520  -116.2627   -49.6321 C0            1 RES     
    3661 C0         128.9225  -107.2017   -48.0651 C0            1 RES     
    3662 C0         128.8867  -106.1446   -46.9188 C0            1 RES     
    3663 C0         128.9466  -104.7434   -47.5344 C0            1 RES     
    3664 C0         129.2517  -103.5674   -46.6109 C0            1 RES     
    3665 C0         128.0902  -103.0383   -45.7823 C0            1 RES     
    3666 C0         128.6050  -101.8333   -44.9672 C0            1 RES     
    3667 C0         127.5118  -101.0640   -44.2220 C0            1 RES     
    3668 C0         126.5696  -100.3253   -45.1748 C0            1 RES     
    3669 H6         131.8521  -107.4052   -47.3663 H6            1 RES     
    3670 H6         132.1111  -108.7361   -48.4755 H6            1 RES     
    3671 H6         129.8254  -108.9205   -48.9537 H6            1 RES     
    3672 H6         130.4497  -108.4960   -45.9387 H6            1 RES     
    3673 H6         130.8714  -109.9254   -46.9364 H6            1 RES     
    3674 H6         128.4271  -110.4547   -47.1745 H6            1 RES     
    3675 H6         128.0363  -109.0115   -46.1762 H6            1 RES     
    3676 H6         127.9382  -110.9564   -44.7525 H6            1 RES     
    3677 H6         129.2616  -109.8857   -44.2334 H6            1 RES     
    3678 H6         129.8891  -112.2725   -44.0760 H6            1 RES     
    3679 H6         130.9665  -111.3900   -45.1929 H6            1 RES     
    3680 H6         129.8093  -112.3361   -47.1628 H6            1 RES     
    3681 H6         130.4238  -113.6088   -46.0588 H6            1 RES     
    3682 H6         127.5043  -112.6024   -46.2057 H6            1 RES     
    3683 H6         128.0907  -113.9046   -45.1092 H6            1 RES     
    3684 H6         126.8956  -114.7035   -47.1590 H6            1 RES     
    3685 H6         128.1245  -113.8977   -48.1996 H6            1 RES     
    3686 H6         129.8976  -115.4567   -47.2277 H6            1 RES     
    3687 H6         128.6393  -116.1534   -46.1424 H6            1 RES     
    3688 H6         127.3657  -116.9861   -48.1252 H6            1 RES     
    3689 H6         129.0348  -117.6503   -48.0164 H6            1 RES     
    3690 H6         128.1507  -115.3722   -49.9051 H6            1 RES     
    3691 H6         129.8320  -116.0229   -49.7313 H6            1 RES     
    3692 H6         128.5013  -117.0745   -50.3466 H6            1 RES     
    3693 H6         127.9609  -107.7563   -48.0183 H6            1 RES     
    3694 H6         128.8703  -106.7158   -49.0629 H6            1 RES     
    3695 H6         127.9428  -106.2273   -46.3346 H6            1 RES     
    3696 H6         129.7372  -106.3052   -46.2256 H6            1 RES     
    3697 H6         128.0742  -104.5324   -48.1880 H6            1 RES     
    3698 H6         129.8124  -104.7878   -48.1602 H6            1 RES     
    3699 H6         130.1032  -103.8233   -45.9757 H6            1 RES     
    3700 H6         129.5741  -102.7283   -47.2686 H6            1 RES     
    3701 H6         127.2960  -102.7253   -46.4927 H6            1 RES     
    3702 H6         127.6870  -103.8189   -45.1031 H6            1 RES     
    3703 H6         129.3466  -102.2109   -44.2272 H6            1 RES     
    3704 H6         129.1319  -101.1107   -45.6311 H6            1 RES     
    3705 H6         128.0102  -100.2975   -43.5887 H6            1 RES     
    3706 H6         126.9410  -101.7493   -43.5607 H6            1 RES     
    3707 H6         126.0043  -101.0305   -45.8155 H6            1 RES     
    3708 H6         125.8412   -99.7300   -44.5878 H6            1 RES     
    3709 H6         127.1489   -99.6303   -45.8230 H6            1 RES     
    3710 C0         133.7417  -106.9133   -49.4643 C0            1 RES     
    3711 C0         134.6912  -107.5370   -48.3438 C0            1 RES     
    3712 C0         136.1194  -106.9459   -48.5952 C0            1 RES     
    3713 C0         137.2638  -107.6079   -47.8014 C0            1 RES     
    3714 C0         138.6447  -106.9804   -48.0613 C0            1 RES     
    3715 C0         139.1389  -107.0316   -49.5180 C0            1 RES     
    3716 C0         139.1456  -108.4302   -50.1571 C0            1 RES     
    3717 C0         139.9936  -109.4538   -49.3816 C0            1 RES     
    3718 C0         139.9857  -110.8474   -50.0304 C0            1 RES     
    3719 C0         140.6871  -110.8743   -51.4002 C0            1 RES     
    3720 C0         140.7912  -112.2879   -51.9937 C0            1 RES     
    3721 C0         139.4331  -112.8977   -52.3413 C0            1 RES     
    3722 C0         134.3615  -107.5983   -46.7931 C0            1 RES     
    3723 C0         134.2889  -106.3166   -45.9156 C0            1 RES     
    3724 C0         132.8435  -105.9469   -45.5367 C0            1 RES     
    3725 C0         132.6555  -104.6719   -44.7313 C0            1 RES     
    3726 C0         133.0799  -104.7092   -43.2699 C0            1 RES     
    3727 C0         132.6322  -103.3766   -42.6353 C0            1 RES     
    3728 C0         132.8384  -103.2936   -41.1218 C0            1 RES     
    3729 C0         131.9261  -104.2543   -40.3578 C0            1 RES     
    3730 H6         134.1401  -105.9125   -49.7518 H6            1 RES     
    3731 H6         133.9829  -107.4973   -50.3812 H6            1 RES     
    3732 H6         134.7307  -108.6194   -48.6062 H6            1 RES     
    3733 H6         136.1090  -105.8595   -48.3609 H6            1 RES     
    3734 H6         136.3480  -107.0600   -49.6767 H6            1 RES     
    3735 H6         137.2870  -108.6945   -48.0277 H6            1 RES     
    3736 H6         137.1023  -107.4790   -46.7136 H6            1 RES     
    3737 H6         139.3805  -107.5026   -47.4130 H6            1 RES     
    3738 H6         138.6298  -105.9165   -47.7373 H6            1 RES     
    3739 H6         140.1693  -106.6141   -49.5426 H6            1 RES     
    3740 H6         138.5033  -106.3697   -50.1441 H6            1 RES     
    3741 H6         138.1034  -108.8062   -50.2393 H6            1 RES     
    3742 H6         139.5436  -108.3083   -51.1851 H6            1 RES     
    3743 H6         139.5694  -109.5730   -48.3628 H6            1 RES     
    3744 H6         141.0397  -109.0914   -49.2825 H6            1 RES     
    3745 H6         140.5288  -111.5384   -49.3495 H6            1 RES     
    3746 H6         138.9349  -111.1973   -50.1152 H6            1 RES     
    3747 H6         140.1631  -110.2221   -52.1288 H6            1 RES     
    3748 H6         141.7214  -110.4887   -51.2659 H6            1 RES     
    3749 H6         141.3302  -112.9548   -51.2862 H6            1 RES     
    3750 H6         141.3861  -112.2241   -52.9302 H6            1 RES     
    3751 H6         138.8095  -113.0372   -51.4354 H6            1 RES     
    3752 H6         138.8945  -112.2486   -53.0642 H6            1 RES     
    3753 H6         139.5874  -113.8940   -52.8065 H6            1 RES     
    3754 H6         135.1783  -108.2031   -46.3584 H6            1 RES     
    3755 H6         133.5368  -108.2942   -46.5496 H6            1 RES     
    3756 H6         134.7780  -106.5447   -44.9430 H6            1 RES     
    3757 H6         134.8515  -105.4833   -46.3830 H6            1 RES     
    3758 H6         132.3522  -106.7996   -45.0154 H6            1 RES     
    3759 H6         132.2737  -105.7319   -46.4338 H6            1 RES     
    3760 H6         133.1219  -103.8153   -45.2649 H6            1 RES     
    3761 H6         131.5639  -104.5225   -44.6923 H6            1 RES     
    3762 H6         132.5610  -105.5648   -42.7883 H6            1 RES     
    3763 H6         134.1772  -104.8453   -43.1737 H6            1 RES     
    3764 H6         133.2035  -102.5550   -43.1208 H6            1 RES     
    3765 H6         131.5506  -103.1975   -42.8354 H6            1 RES     
    3766 H6         132.5715  -102.2605   -40.8081 H6            1 RES     
    3767 H6         133.9019  -103.4773   -40.8707 H6            1 RES     
    3768 H6         132.1638  -105.3111   -40.5915 H6            1 RES     
    3769 H6         132.0632  -104.1006   -39.2678 H6            1 RES     
    3770 H6         130.8610  -104.0561   -40.6094 H6            1 RES     
    3771 C0         128.9500  -114.2678   -59.5677 C0            1 RES     
    3772 C1         128.9849  -112.8874   -58.8755 C1            1 RES     
    3773 C1         128.7635  -111.8673   -59.7446 C1            1 RES     
    3774 S2         128.8859  -110.3519   -59.0439 S2            1 RES     
    3775 C1         129.2899  -111.0115   -57.5298 C1            1 RES     
    3776 C1         129.3254  -112.4085   -57.5994 C1            1 RES     
    3777 C1         128.5999  -112.4014   -61.0411 C1            1 RES     
    3778 C1         128.7842  -113.7486   -60.9967 C1            1 RES     
    3779 C1         128.7795  -114.3244   -62.2615 C1            1 RES     
    3780 C1         128.5469  -113.3507   -63.2474 C1            1 RES     
    3781 S2         128.3672  -111.8018   -62.5750 S2            1 RES     
    3782 H3         129.6360  -113.0053   -56.7630 H3            1 RES     
    3783 H3         128.9389  -115.3780   -62.4573 H3            1 RES     
    3784 N4         127.4714  -113.5742   -66.8312 N4            1 RES     
    3785 C1         127.4177  -113.4144   -65.4764 C1            1 RES     
    3786 C1         128.5736  -113.5623   -64.6904 C1            1 RES     
    3787 C1         129.7763  -113.8535   -65.3365 C1            1 RES     
    3788 N4         130.9723  -113.9650   -64.7035 N4            1 RES     
    3789 S2         132.0092  -114.2448   -65.9599 S2            1 RES     
    3790 N4         131.0269  -114.2389   -67.2917 N4            1 RES     
    3791 C1         129.8095  -113.9953   -66.7465 C1            1 RES     
    3792 C1         128.6335  -113.8653   -67.4806 C1            1 RES     
    3793 H5         126.4672  -113.1792   -65.0052 H5            1 RES     
    3794 C0         127.7732  -115.2594   -59.2600 C0            1 RES     
    3795 C0         126.2557  -115.2018   -59.6792 C0            1 RES     
    3796 C0         125.5838  -116.4180   -58.9500 C0            1 RES     
    3797 C0         124.0962  -116.6598   -59.2342 C0            1 RES     
    3798 C0         123.5301  -117.8499   -58.4242 C0            1 RES     
    3799 C0         124.1592  -119.2282   -58.7248 C0            1 RES     
    3800 C0         124.1223  -119.6484   -60.2047 C0            1 RES     
    3801 C0         122.6981  -119.6807   -60.7871 C0            1 RES     
    3802 C0         122.6689  -120.0457   -62.2782 C0            1 RES     
    3803 C0         123.1091  -121.4930   -62.5561 C0            1 RES     
    3804 C0         122.9667  -121.8829   -64.0360 C0            1 RES     
    3805 C0         123.9034  -121.1009   -64.9577 C0            1 RES     
    3806 C0         125.4483  -113.8779   -59.4781 C0            1 RES     
    3807 C0         125.2007  -113.3479   -58.0322 C0            1 RES     
    3808 C0         125.8062  -111.9465   -57.9072 C0            1 RES     
    3809 C0         125.9767  -111.3617   -56.5080 C0            1 RES     
    3810 C0         124.7319  -110.7657   -55.8671 C0            1 RES     
    3811 C0         125.1386  -110.1951   -54.4922 C0            1 RES     
    3812 C0         124.0408  -109.3878   -53.7958 C0            1 RES     
    3813 C0         123.7372  -108.0750   -54.5209 C0            1 RES     
    3814 H6         127.7443  -115.3685   -58.2060 H6            1 RES     
    3815 H6         128.1159  -116.2296   -59.6855 H6            1 RES     
    3816 H6         126.2222  -115.3862   -60.7762 H6            1 RES     
    3817 H6         125.6905  -116.2906   -57.8505 H6            1 RES     
    3818 H6         126.1418  -117.3349   -59.2370 H6            1 RES     
    3819 H6         123.9359  -116.8143   -60.3206 H6            1 RES     
    3820 H6         123.5150  -115.7697   -58.9194 H6            1 RES     
    3821 H6         122.4379  -117.9061   -58.6115 H6            1 RES     
    3822 H6         123.6528  -117.6455   -57.3374 H6            1 RES     
    3823 H6         123.6225  -119.9917   -58.1186 H6            1 RES     
    3824 H6         125.2181  -119.2378   -58.3886 H6            1 RES     
    3825 H6         124.7484  -118.9500   -60.7993 H6            1 RES     
    3826 H6         124.5817  -120.6563   -60.2728 H6            1 RES     
    3827 H6         122.2561  -118.6665   -60.7086 H6            1 RES     
    3828 H6         122.0608  -120.3854   -60.2093 H6            1 RES     
    3829 H6         121.6211  -119.9290   -62.6314 H6            1 RES     
    3830 H6         123.3051  -119.3233   -62.8315 H6            1 RES     
    3831 H6         124.1612  -121.6557   -62.2432 H6            1 RES     
    3832 H6         122.4577  -122.1718   -61.9635 H6            1 RES     
    3833 H6         121.9142  -121.7390   -64.3643 H6            1 RES     
    3834 H6         123.2145  -122.9618   -64.1342 H6            1 RES     
    3835 H6         123.6710  -120.0169   -64.9453 H6            1 RES     
    3836 H6         124.9596  -121.2551   -64.6505 H6            1 RES     
    3837 H6         123.7801  -121.4633   -65.9998 H6            1 RES     
    3838 H6         124.4486  -114.0208   -59.9414 H6            1 RES     
    3839 H6         125.9008  -113.0939   -60.1224 H6            1 RES     
    3840 H6         124.1105  -113.2755   -57.8193 H6            1 RES     
    3841 H6         125.6524  -114.0379   -57.2909 H6            1 RES     
    3842 H6         125.3305  -111.2187   -58.5978 H6            1 RES     
    3843 H6         126.8148  -112.0857   -58.2336 H6            1 RES     
    3844 H6         126.4309  -112.1144   -55.8590 H6            1 RES     
    3845 H6         126.7085  -110.5276   -56.6044 H6            1 RES     
    3846 H6         124.3710  -109.9587   -56.5394 H6            1 RES     
    3847 H6         123.9325  -111.5271   -55.7471 H6            1 RES     
    3848 H6         125.4267  -111.0489   -53.8377 H6            1 RES     
    3849 H6         126.0297  -109.5344   -54.5929 H6            1 RES     
    3850 H6         124.4071  -109.1272   -52.7784 H6            1 RES     
    3851 H6         123.1199  -109.9993   -53.6919 H6            1 RES     
    3852 H6         123.3276  -108.2556   -55.5343 H6            1 RES     
    3853 H6         122.9885  -107.4968   -53.9422 H6            1 RES     
    3854 H6         124.6626  -107.4627   -54.6070 H6            1 RES     
    3855 C0         130.3634  -114.9104   -59.2759 C0            1 RES     
    3856 C0         130.6332  -116.1845   -58.3539 C0            1 RES     
    3857 C0         132.1378  -116.1102   -57.9261 C0            1 RES     
    3858 C0         132.7013  -117.3758   -57.2487 C0            1 RES     
    3859 C0         134.1750  -117.2498   -56.8241 C0            1 RES     
    3860 C0         135.1764  -116.9714   -57.9592 C0            1 RES     
    3861 C0         135.1233  -117.9611   -59.1350 C0            1 RES     
    3862 C0         135.3493  -119.4241   -58.7146 C0            1 RES     
    3863 C0         135.2880  -120.4008   -59.9002 C0            1 RES     
    3864 C0         136.4457  -120.2073   -60.8958 C0            1 RES     
    3865 C0         136.4583  -121.2614   -62.0139 C0            1 RES     
    3866 C0         135.2472  -121.1705   -62.9424 C0            1 RES     
    3867 C0         129.7168  -116.6528   -57.1464 C0            1 RES     
    3868 C0         129.5916  -115.8225   -55.8377 C0            1 RES     
    3869 C0         128.2345  -115.1046   -55.7267 C0            1 RES     
    3870 C0         128.0332  -114.2127   -54.5127 C0            1 RES     
    3871 C0         127.8303  -114.9058   -53.1726 C0            1 RES     
    3872 C0         127.4769  -113.8100   -52.1463 C0            1 RES     
    3873 C0         127.0855  -114.3371   -50.7646 C0            1 RES     
    3874 C0         125.7584  -115.0970   -50.7874 C0            1 RES     
    3875 H6         131.0536  -114.0925   -58.9636 H6            1 RES     
    3876 H6         130.8090  -115.1863   -60.2583 H6            1 RES     
    3877 H6         130.5316  -117.0433   -59.0569 H6            1 RES     
    3878 H6         132.2773  -115.2489   -57.2376 H6            1 RES     
    3879 H6         132.7409  -115.9185   -58.8395 H6            1 RES     
    3880 H6         132.5700  -118.2447   -57.9271 H6            1 RES     
    3881 H6         132.1588  -117.5814   -56.3056 H6            1 RES     
    3882 H6         134.4618  -118.1946   -56.3148 H6            1 RES     
    3883 H6         134.2703  -116.4373   -56.0705 H6            1 RES     
    3884 H6         136.1984  -116.9798   -57.5210 H6            1 RES     
    3885 H6         135.0013  -115.9503   -58.3602 H6            1 RES     
    3886 H6         134.1418  -117.8756   -59.6485 H6            1 RES     
    3887 H6         135.9090  -117.6462   -59.8516 H6            1 RES     
    3888 H6         134.5444  -119.7239   -58.0115 H6            1 RES     
    3889 H6         136.3245  -119.5285   -58.1917 H6            1 RES     
    3890 H6         135.3526  -121.4321   -59.4899 H6            1 RES     
    3891 H6         134.3057  -120.2887   -60.4064 H6            1 RES     
    3892 H6         136.4083  -119.2000   -61.3593 H6            1 RES     
    3893 H6         137.4018  -120.2996   -60.3356 H6            1 RES     
    3894 H6         136.5141  -122.2796   -61.5712 H6            1 RES     
    3895 H6         137.3710  -121.1004   -62.6272 H6            1 RES     
    3896 H6         134.3042  -121.3757   -62.3969 H6            1 RES     
    3897 H6         135.1938  -120.1625   -63.4062 H6            1 RES     
    3898 H6         135.3467  -121.9268   -63.7492 H6            1 RES     
    3899 H6         130.1414  -117.6249   -56.8352 H6            1 RES     
    3900 H6         128.7309  -117.0361   -57.4701 H6            1 RES     
    3901 H6         129.5961  -116.5350   -54.9835 H6            1 RES     
    3902 H6         130.4619  -115.1471   -55.7115 H6            1 RES     
    3903 H6         127.4024  -115.8414   -55.7970 H6            1 RES     
    3904 H6         128.1255  -114.3999   -56.5435 H6            1 RES     
    3905 H6         128.8486  -113.4591   -54.4576 H6            1 RES     
    3906 H6         127.0764  -113.6973   -54.6982 H6            1 RES     
    3907 H6         126.9885  -115.6213   -53.2853 H6            1 RES     
    3908 H6         128.7420  -115.4586   -52.8642 H6            1 RES     
    3909 H6         128.3595  -113.1417   -52.0385 H6            1 RES     
    3910 H6         126.6295  -113.1899   -52.5196 H6            1 RES     
    3911 H6         126.9531  -113.4554   -50.0998 H6            1 RES     
    3912 H6         127.8957  -114.9722   -50.3546 H6            1 RES     
    3913 H6         125.8282  -116.0162   -51.4023 H6            1 RES     
    3914 H6         125.4872  -115.3913   -49.7528 H6            1 RES     
    3915 H6         124.9503  -114.4486   -51.1915 H6            1 RES     
    3916 C0         128.4206  -116.0149   -72.4718 C0            1 RES     
    3917 C1         128.4860  -115.0745   -71.2482 C1            1 RES     
    3918 C1         128.8554  -113.8116   -71.5856 C1            1 RES     
    3919 S2         129.0255  -112.7897   -70.2706 S2            1 RES     
    3920 C1         128.6458  -114.0310   -69.1725 C1            1 RES     
    3921 C1         128.3954  -115.2267   -69.8546 C1            1 RES     
    3922 C1         129.0997  -113.7648   -72.9751 C1            1 RES     
    3923 C1         128.9484  -115.0115   -73.4984 C1            1 RES     
    3924 C1         129.3129  -115.0699   -74.8382 C1            1 RES     
    3925 C1         129.7078  -113.8027   -75.2991 C1            1 RES     
    3926 S2         129.6267  -112.6313   -74.0724 S2            1 RES     
    3927 H3         128.2123  -116.1453   -69.3301 H3            1 RES     
    3928 H3         129.2986  -115.9707   -75.4400 H3            1 RES     
    3929 N4         130.1044  -112.3626   -78.7370 N4            1 RES     
    3930 C1         129.5602  -112.6733   -77.5240 C1            1 RES     
    3931 C1         130.2509  -113.4963   -76.6177 C1            1 RES     
    3932 C1         131.5137  -113.9651   -76.9847 C1            1 RES     
    3933 N4         132.3083  -114.7184   -76.1818 N4            1 RES     
    3934 S2         133.6649  -114.9055   -77.1073 S2            1 RES     
    3935 N4         133.3118  -114.0801   -78.4974 N4            1 RES     
    3936 C1         132.0651  -113.6122   -78.2419 C1            1 RES     
    3937 C1         131.3321  -112.8152   -79.1173 C1            1 RES     
    3938 H5         128.5789  -112.2848   -77.2654 H5            1 RES     
    3939 C0         127.0297  -116.5467   -72.9670 C0            1 RES     
    3940 C0         125.8522  -115.7960   -73.6963 C0            1 RES     
    3941 C0         124.6968  -116.8526   -73.8013 C0            1 RES     
    3942 C0         123.4267  -116.4183   -74.5432 C0            1 RES     
    3943 C0         122.3398  -117.5190   -74.5397 C0            1 RES     
    3944 C0         122.7140  -118.8362   -75.2544 C0            1 RES     
    3945 C0         123.1687  -118.6739   -76.7156 C0            1 RES     
    3946 C0         122.1186  -117.9787   -77.6003 C0            1 RES     
    3947 C0         122.5968  -117.7677   -79.0440 C0            1 RES     
    3948 C0         122.7781  -119.0831   -79.8202 C0            1 RES     
    3949 C0         123.1453  -118.8561   -81.2953 C0            1 RES     
    3950 C0         124.5164  -118.2051   -81.4814 C0            1 RES     
    3951 C0         125.3458  -114.4261   -73.1377 C0            1 RES     
    3952 C0         124.6748  -114.3775   -71.7306 C0            1 RES     
    3953 C0         125.4768  -113.4320   -70.8312 C0            1 RES     
    3954 C0         125.2096  -113.4730   -69.3292 C0            1 RES     
    3955 C0         123.9789  -112.7237   -68.8399 C0            1 RES     
    3956 C0         123.9289  -112.8553   -67.3031 C0            1 RES     
    3957 C0         122.8545  -111.9964   -66.6323 C0            1 RES     
    3958 C0         123.1588  -110.5004   -66.7361 C0            1 RES     
    3959 H6         126.5660  -116.9948   -72.1255 H6            1 RES     
    3960 H6         127.2876  -117.3632   -73.6787 H6            1 RES     
    3961 H6         126.2118  -115.5637   -74.7235 H6            1 RES     
    3962 H6         124.3889  -117.1618   -72.7785 H6            1 RES     
    3963 H6         125.1044  -117.7499   -74.3143 H6            1 RES     
    3964 H6         123.6756  -116.1173   -75.5812 H6            1 RES     
    3965 H6         122.9815  -115.5453   -74.0246 H6            1 RES     
    3966 H6         121.4258  -117.1026   -75.0113 H6            1 RES     
    3967 H6         122.0683  -117.7631   -73.4888 H6            1 RES     
    3968 H6         121.8279  -119.5087   -75.2239 H6            1 RES     
    3969 H6         123.5252  -119.3487   -74.6944 H6            1 RES     
    3970 H6         124.1156  -118.0945   -76.7422 H6            1 RES     
    3971 H6         123.3822  -119.6894   -77.1091 H6            1 RES     
    3972 H6         121.9179  -116.9678   -77.1905 H6            1 RES     
    3973 H6         121.1668  -118.5538   -77.5939 H6            1 RES     
    3974 H6         121.8259  -117.1609   -79.5672 H6            1 RES     
    3975 H6         123.5419  -117.1855   -79.0219 H6            1 RES     
    3976 H6         123.5585  -119.7174   -79.3510 H6            1 RES     
    3977 H6         121.8137  -119.6358   -79.7930 H6            1 RES     
    3978 H6         122.3664  -118.2327   -81.7862 H6            1 RES     
    3979 H6         123.1660  -119.8450   -81.8021 H6            1 RES     
    3980 H6         124.5443  -117.1879   -81.0414 H6            1 RES     
    3981 H6         125.3046  -118.8315   -81.0123 H6            1 RES     
    3982 H6         124.7349  -118.1126   -82.5659 H6            1 RES     
    3983 H6         124.6035  -114.0231   -73.8596 H6            1 RES     
    3984 H6         126.1763  -113.6919   -73.2136 H6            1 RES     
    3985 H6         123.6341  -113.9892   -71.8024 H6            1 RES     
    3986 H6         124.6343  -115.3954   -71.2923 H6            1 RES     
    3987 H6         125.4844  -112.3902   -71.2153 H6            1 RES     
    3988 H6         126.4745  -113.8089   -70.9077 H6            1 RES     
    3989 H6         125.1937  -114.5141   -68.9974 H6            1 RES     
    3990 H6         126.0855  -112.9873   -68.8421 H6            1 RES     
    3991 H6         124.0993  -111.6619   -69.1425 H6            1 RES     
    3992 H6         123.0495  -113.1301   -69.2918 H6            1 RES     
    3993 H6         123.7401  -113.9246   -67.0559 H6            1 RES     
    3994 H6         124.9103  -112.5761   -66.8563 H6            1 RES     
    3995 H6         122.8400  -112.2572   -65.5512 H6            1 RES     
    3996 H6         121.8561  -112.2232   -67.0620 H6            1 RES     
    3997 H6         123.1508  -110.1560   -67.7890 H6            1 RES     
    3998 H6         122.3915  -109.9268   -66.1777 H6            1 RES     
    3999 H6         124.1544  -110.2808   -66.2897 H6            1 RES     
    4000 C0         129.4255  -117.1887   -72.1431 C0            1 RES     
    4001 C0         129.0223  -118.7069   -71.8628 C0            1 RES     
    4002 C0         130.2141  -119.3419   -71.0699 C0            1 RES     
    4003 C0         130.1710  -120.8758   -70.9172 C0            1 RES     
    4004 C0         131.3479  -121.4537   -70.1116 C0            1 RES     
    4005 C0         132.7490  -121.1876   -70.6906 C0            1 RES     
    4006 C0         132.9436  -121.6165   -72.1544 C0            1 RES     
    4007 C0         132.6562  -123.1085   -72.3986 C0            1 RES     
    4008 C0         132.8504  -123.5198   -73.8671 C0            1 RES     
    4009 C0         134.3174  -123.4326   -74.3245 C0            1 RES     
    4010 C0         134.5338  -123.9612   -75.7511 C0            1 RES     
    4011 C0         133.8371  -123.1179   -76.8191 C0            1 RES     
    4012 C0         127.6267  -119.1933   -71.2860 C0            1 RES     
    4013 C0         127.1854  -118.8826   -69.8277 C0            1 RES     
    4014 C0         126.0894  -117.8037   -69.7642 C0            1 RES     
    4015 C0         125.6309  -117.3792   -68.3788 C0            1 RES     
    4016 C0         124.7704  -118.3669   -67.6034 C0            1 RES     
    4017 C0         124.2950  -117.6457   -66.3256 C0            1 RES     
    4018 C0         123.2867  -118.4354   -65.4891 C0            1 RES     
    4019 C0         121.9425  -118.5977   -66.2004 C0            1 RES     
    4020 H6         130.1004  -116.8429   -71.3258 H6            1 RES     
    4021 H6         130.1477  -117.2506   -72.9884 H6            1 RES     
    4022 H6         129.0172  -119.1685   -72.8772 H6            1 RES     
    4023 H6         130.2593  -118.8870   -70.0568 H6            1 RES     
    4024 H6         131.1534  -119.0814   -71.6035 H6            1 RES     
    4025 H6         130.1274  -121.3438   -71.9230 H6            1 RES     
    4026 H6         129.2711  -121.1808   -70.3487 H6            1 RES     
    4027 H6         131.1947  -122.5510   -70.0298 H6            1 RES     
    4028 H6         131.3173  -121.0473   -69.0768 H6            1 RES     
    4029 H6         133.4875  -121.7208   -70.0527 H6            1 RES     
    4030 H6         132.9762  -120.1027   -70.6162 H6            1 RES     
    4031 H6         132.2879  -121.0056   -72.8109 H6            1 RES     
    4032 H6         133.9960  -121.3846   -72.4166 H6            1 RES     
    4033 H6         131.5954  -123.3157   -72.1462 H6            1 RES     
    4034 H6         133.2986  -123.7368   -71.7444 H6            1 RES     
    4035 H6         132.5186  -124.5762   -73.9671 H6            1 RES     
    4036 H6         132.1969  -122.8881   -74.5056 H6            1 RES     
    4037 H6         134.6890  -122.3885   -74.2736 H6            1 RES     
    4038 H6         134.9306  -124.0563   -73.6379 H6            1 RES     
    4039 H6         134.1844  -125.0143   -75.8197 H6            1 RES     
    4040 H6         135.6249  -123.9445   -75.9616 H6            1 RES     
    4041 H6         132.7357  -123.1383   -76.6944 H6            1 RES     
    4042 H6         134.1948  -122.0672   -76.7723 H6            1 RES     
    4043 H6         134.0749  -123.5287   -77.8228 H6            1 RES     
    4044 H6         127.6683  -120.2961   -71.3491 H6            1 RES     
    4045 H6         126.7886  -119.0512   -71.9939 H6            1 RES     
    4046 H6         126.6963  -119.7951   -69.4208 H6            1 RES     
    4047 H6         128.0624  -118.6616   -69.1862 H6            1 RES     
    4048 H6         125.2109  -118.1110   -70.3759 H6            1 RES     
    4049 H6         126.4687  -116.8726   -70.1703 H6            1 RES     
    4050 H6         126.5042  -117.0460   -67.7770 H6            1 RES     
    4051 H6         124.9638  -116.5193   -68.5548 H6            1 RES     
    4052 H6         123.9046  -118.6376   -68.2440 H6            1 RES     
    4053 H6         125.3409  -119.2851   -67.3515 H6            1 RES     
    4054 H6         125.1886  -117.4290   -65.6998 H6            1 RES     
    4055 H6         123.8224  -116.6705   -66.5855 H6            1 RES     
    4056 H6         123.1030  -117.8550   -64.5583 H6            1 RES     
    4057 H6         123.7083  -119.4226   -65.2145 H6            1 RES     
    4058 H6         122.0424  -119.2047   -67.1221 H6            1 RES     
    4059 H6         121.2292  -119.1103   -65.5229 H6            1 RES     
    4060 H6         121.5233  -117.6018   -66.4636 H6            1 RES     
    4061 C0         132.6243  -112.8684   -84.3999 C0            1 RES     
    4062 C1         132.4108  -112.5031   -82.9144 C1            1 RES     
    4063 C1         133.1528  -111.4309   -82.5337 C1            1 RES     
    4064 S2         133.0150  -111.0650   -80.9059 S2            1 RES     
    4065 C1         131.9702  -112.3780   -80.6311 C1            1 RES     
    4066 C1         131.7494  -113.0833   -81.8192 C1            1 RES     
    4067 C1         133.9265  -110.9995   -83.6328 C1            1 RES     
    4068 C1         133.7205  -111.8400   -84.6825 C1            1 RES     
    4069 C1         134.5586  -111.5608   -85.7553 C1            1 RES     
    4070 C1         135.3728  -110.4514   -85.4712 C1            1 RES     
    4071 S2         135.0786  -109.8340   -83.9170 S2            1 RES     
    4072 H3         131.1766  -113.9910   -81.8358 H3            1 RES     
    4073 H3         134.5825  -112.1256   -86.6795 H3            1 RES     
    4074 N4         137.3949  -108.1640   -87.6459 N4            1 RES     
    4075 C1         136.3643  -108.6524   -86.8953 C1            1 RES     
    4076 C1         136.4430  -109.9298   -86.3140 C1            1 RES     
    4077 C1         137.6103  -110.6705   -86.5076 C1            1 RES     
    4078 N4         137.8378  -111.8900   -85.9556 N4            1 RES     
    4079 S2         139.3705  -112.2286   -86.4732 S2            1 RES     
    4080 N4         139.7837  -110.9056   -87.3772 N4            1 RES     
    4081 C1         138.6741  -110.1329   -87.2749 C1            1 RES     
    4082 C1         138.5398  -108.8733   -87.8528 C1            1 RES     
    4083 H5         135.4729  -108.0468   -86.7566 H5            1 RES     
    4084 C0         131.4590  -112.6470   -85.4275 C0            1 RES     
    4085 C0         130.8603  -111.3150   -86.0184 C0            1 RES     
    4086 C0         129.6359  -111.7681   -86.8890 C0            1 RES     
    4087 C0         128.8894  -110.6711   -87.6581 C0            1 RES     
    4088 C0         127.6739  -111.2250   -88.4382 C0            1 RES     
    4089 C0         127.9966  -112.2528   -89.5452 C0            1 RES     
    4090 C0         129.0118  -111.7740   -90.5979 C0            1 RES     
    4091 C0         128.5755  -110.4828   -91.3129 C0            1 RES     
    4092 C0         129.6156  -109.9766   -92.3226 C0            1 RES     
    4093 C0         129.7906  -110.9110   -93.5317 C0            1 RES     
    4094 C0         130.7475  -110.3394   -94.5899 C0            1 RES     
    4095 C0         132.1888  -110.2149   -94.0944 C0            1 RES     
    4096 C0         130.4925  -110.1392   -85.0554 C0            1 RES     
    4097 C0         129.3522  -110.3380   -84.0100 C0            1 RES     
    4098 C0         129.9247  -110.1260   -82.6053 C0            1 RES     
    4099 C0         129.0878  -110.5828   -81.4138 C0            1 RES     
    4100 C0         127.9631  -109.6539   -80.9806 C0            1 RES     
    4101 C0         127.2864  -110.2805   -79.7434 C0            1 RES     
    4102 C0         126.2542  -109.3769   -79.0649 C0            1 RES     
    4103 C0         126.8981  -108.1602   -78.3967 C0            1 RES     
    4104 H6         130.6156  -113.1552   -85.0346 H6            1 RES     
    4105 H6         131.7875  -113.2008   -86.3358 H6            1 RES     
    4106 H6         131.6359  -110.8909   -86.6945 H6            1 RES     
    4107 H6         128.8912  -112.2761   -86.2380 H6            1 RES     
    4108 H6         130.0023  -112.5152   -87.6253 H6            1 RES     
    4109 H6         129.5856  -110.1435   -88.3414 H6            1 RES     
    4110 H6         128.4820  -109.9332   -86.9379 H6            1 RES     
    4111 H6         127.1353  -110.3674   -88.8917 H6            1 RES     
    4112 H6         126.9650  -111.6998   -87.7242 H6            1 RES     
    4113 H6         127.0445  -112.5196   -90.0559 H6            1 RES     
    4114 H6         128.3875  -113.1864   -89.0869 H6            1 RES     
    4115 H6         129.9959  -111.6112   -90.1100 H6            1 RES     
    4116 H6         129.1318  -112.5934   -91.3367 H6            1 RES     
    4117 H6         128.4595  -109.6777   -90.5590 H6            1 RES     
    4118 H6         127.5959  -110.6332   -91.8173 H6            1 RES     
    4119 H6         129.2671  -108.9891   -92.6962 H6            1 RES     
    4120 H6         130.5796  -109.8276   -91.7924 H6            1 RES     
    4121 H6         130.1627  -111.9070   -93.2140 H6            1 RES     
    4122 H6         128.7965  -111.0445   -94.0116 H6            1 RES     
    4123 H6         130.3829  -109.3458   -94.9307 H6            1 RES     
    4124 H6         130.7457  -111.0259   -95.4639 H6            1 RES     
    4125 H6         132.2663  -109.4986   -93.2518 H6            1 RES     
    4126 H6         132.5695  -111.2070   -93.7711 H6            1 RES     
    4127 H6         132.8298  -109.8402   -94.9196 H6            1 RES     
    4128 H6         130.2024  -109.2696   -85.6831 H6            1 RES     
    4129 H6         131.4264  -109.7830   -84.5700 H6            1 RES     
    4130 H6         128.5373  -109.5964   -84.1686 H6            1 RES     
    4131 H6         128.9186  -111.3539   -84.1076 H6            1 RES     
    4132 H6         130.3131  -109.0960   -82.4594 H6            1 RES     
    4133 H6         130.7619  -110.7906   -82.5793 H6            1 RES     
    4134 H6         128.7127  -111.5910   -81.6061 H6            1 RES     
    4135 H6         129.7862  -110.6525   -80.5490 H6            1 RES     
    4136 H6         128.4246  -108.6761   -80.7265 H6            1 RES     
    4137 H6         127.2207  -109.5081   -81.7934 H6            1 RES     
    4138 H6         126.7839  -111.2205   -80.0660 H6            1 RES     
    4139 H6         128.0489  -110.5534   -78.9787 H6            1 RES     
    4140 H6         125.7593  -109.9707   -78.2652 H6            1 RES     
    4141 H6         125.4813  -109.0585   -79.7957 H6            1 RES     
    4142 H6         127.3804  -107.4957   -79.1404 H6            1 RES     
    4143 H6         126.1211  -107.5766   -77.8626 H6            1 RES     
    4144 H6         127.6604  -108.4896   -77.6557 H6            1 RES     
    4145 C0         133.1322  -114.3642   -84.3871 C0            1 RES     
    4146 C0         132.3260  -115.6249   -84.9409 C0            1 RES     
    4147 C0         132.9381  -116.8842   -84.2396 C0            1 RES     
    4148 C0         132.4999  -118.2462   -84.8148 C0            1 RES     
    4149 C0         133.1064  -119.4552   -84.0809 C0            1 RES     
    4150 C0         134.6433  -119.5385   -84.0863 C0            1 RES     
    4151 C0         135.2964  -119.4742   -85.4770 C0            1 RES     
    4152 C0         134.8051  -120.5732   -86.4356 C0            1 RES     
    4153 C0         135.4635  -120.4920   -87.8224 C0            1 RES     
    4154 C0         136.9720  -120.7960   -87.7879 C0            1 RES     
    4155 C0         137.6078  -120.8386   -89.1862 C0            1 RES     
    4156 C0         137.5918  -119.4856   -89.8978 C0            1 RES     
    4157 C0         130.7460  -115.7332   -85.0354 C0            1 RES     
    4158 C0         129.8486  -115.8074   -83.7676 C0            1 RES     
    4159 C0         129.0844  -114.4957   -83.5130 C0            1 RES     
    4160 C0         128.2255  -114.4401   -82.2604 C0            1 RES     
    4161 C0         126.9343  -115.2462   -82.2721 C0            1 RES     
    4162 C0         126.1682  -114.8908   -80.9814 C0            1 RES     
    4163 C0         124.7649  -115.4928   -80.8902 C0            1 RES     
    4164 C0         123.8081  -114.8947   -81.9226 C0            1 RES     
    4165 H6         133.4907  -114.5953   -83.3570 H6            1 RES     
    4166 H6         134.0950  -114.3900   -84.9461 H6            1 RES     
    4167 H6         132.6172  -115.6711   -86.0157 H6            1 RES     
    4168 H6         132.6817  -116.8581   -83.1585 H6            1 RES     
    4169 H6         134.0437  -116.8188   -84.3302 H6            1 RES     
    4170 H6         132.7520  -118.2868   -85.8953 H6            1 RES     
    4171 H6         131.4059  -118.3766   -84.7043 H6            1 RES     
    4172 H6         132.6944  -120.3753   -84.5477 H6            1 RES     
    4173 H6         132.7630  -119.4507   -83.0230 H6            1 RES     
    4174 H6         134.9342  -120.4902   -83.5901 H6            1 RES     
    4175 H6         135.0574  -118.7103   -83.4726 H6            1 RES     
    4176 H6         135.1040  -118.4792   -85.9322 H6            1 RES     
    4177 H6         136.3901  -119.5687   -85.3195 H6            1 RES     
    4178 H6         133.7131  -120.4509   -86.5925 H6            1 RES     
    4179 H6         134.9827  -121.5776   -85.9937 H6            1 RES     
    4180 H6         134.9725  -121.2484   -88.4726 H6            1 RES     
    4181 H6         135.2706  -119.4861   -88.2522 H6            1 RES     
    4182 H6         137.5151  -120.0477   -87.1747 H6            1 RES     
    4183 H6         137.1118  -121.7968   -87.3240 H6            1 RES     
    4184 H6         137.0895  -121.5965   -89.8128 H6            1 RES     
    4185 H6         138.6681  -121.1511   -89.0718 H6            1 RES     
    4186 H6         136.5550  -119.1429   -90.0897 H6            1 RES     
    4187 H6         138.1254  -118.7252   -89.2888 H6            1 RES     
    4188 H6         138.1068  -119.5806   -90.8768 H6            1 RES     
    4189 H6         130.5635  -116.6793   -85.5772 H6            1 RES     
    4190 H6         130.3070  -115.0587   -85.7944 H6            1 RES     
    4191 H6         129.0503  -116.5571   -83.9620 H6            1 RES     
    4192 H6         130.4288  -116.1596   -82.8909 H6            1 RES     
    4193 H6         128.4720  -114.2279   -84.4039 H6            1 RES     
    4194 H6         129.7886  -113.6900   -83.3383 H6            1 RES     
    4195 H6         128.8428  -114.6803   -81.3676 H6            1 RES     
    4196 H6         127.8895  -113.3920   -82.1964 H6            1 RES     
    4197 H6         126.3527  -114.9414   -83.1677 H6            1 RES     
    4198 H6         127.1412  -116.3355   -82.3231 H6            1 RES     
    4199 H6         126.7685  -115.2474   -80.1155 H6            1 RES     
    4200 H6         126.0644  -113.7854   -80.8857 H6            1 RES     
    4201 H6         124.3643  -115.2460   -79.8825 H6            1 RES     
    4202 H6         124.8148  -116.5951   -80.9921 H6            1 RES     
    4203 H6         124.1244  -115.1369   -82.9566 H6            1 RES     
    4204 H6         122.7919  -115.3104   -81.7641 H6            1 RES     
    4205 H6         123.7578  -113.7898   -81.8063 H6            1 RES     
    4206 C0         141.7544  -107.5662   -92.0404 C0            1 RES     
    4207 C1         141.0618  -107.6860   -90.6650 C1            1 RES     
    4208 C1         141.8124  -107.1632   -89.6607 C1            1 RES     
    4209 S2         141.1318  -107.3596   -88.1439 S2            1 RES     
    4210 C1         139.8004  -108.2060   -88.7778 C1            1 RES     
    4211 C1         139.9131  -108.3236   -90.1675 C1            1 RES     
    4212 C1         143.0299  -106.6940   -90.1994 C1            1 RES     
    4213 C1         143.0717  -106.9817   -91.5285 C1            1 RES     
    4214 C1         144.3027  -106.6766   -92.0966 C1            1 RES     
    4215 C1         145.1639  -106.1148   -91.1390 C1            1 RES     
    4216 S2         144.4282  -106.0110   -89.6121 S2            1 RES     
    4217 H3         139.2072  -108.8921   -90.7426 H3            1 RES     
    4218 H3         144.5615  -106.8537   -93.1337 H3            1 RES     
    4219 N4         148.3291  -104.1277   -91.4273 N4            1 RES     
    4220 C1         147.0063  -104.4316   -91.2788 C1            1 RES     
    4221 C1         146.5655  -105.7649   -91.3406 C1            1 RES     
    4222 C1         147.5195  -106.7655   -91.5344 C1            1 RES     
    4223 N4         147.2358  -108.0930   -91.5560 N4            1 RES     
    4224 S2         148.7321  -108.7682   -91.7483 S2            1 RES     
    4225 N4         149.7488  -107.4641   -91.8119 N4            1 RES     
    4226 C1         148.8893  -106.4255   -91.6661 C1            1 RES     
    4227 C1         149.2752  -105.0883   -91.6241 C1            1 RES     
    4228 H5         146.2903  -103.6298   -91.1204 H5            1 RES     
    4229 C0         141.1663  -106.5927   -93.1218 C0            1 RES     
    4230 C0         141.1588  -105.0184   -93.1799 C0            1 RES     
    4231 C0         140.3070  -104.6603   -94.4482 C0            1 RES     
    4232 C0         140.1855  -103.1732   -94.8033 C0            1 RES     
    4233 C0         139.2837  -102.9366   -96.0377 C0            1 RES     
    4234 C0         139.7784  -103.5600   -97.3615 C0            1 RES     
    4235 C0         141.2038  -103.1543   -97.7759 C0            1 RES     
    4236 C0         141.3810  -101.6319   -97.9156 C0            1 RES     
    4237 C0         142.8178  -101.2265   -98.2743 C0            1 RES     
    4238 C0         143.2414  -101.6797   -99.6817 C0            1 RES     
    4239 C0         144.6376  -101.1706  -100.0741 C0            1 RES     
    4240 C0         145.7573  -101.7625   -99.2172 C0            1 RES     
    4241 C0         140.7132  -104.2009   -91.9236 C0            1 RES     
    4242 C0         139.2410  -104.3163   -91.4217 C0            1 RES     
    4243 C0         139.2478  -104.8286   -89.9783 C0            1 RES     
    4244 C0         137.9319  -105.3286   -89.3890 C0            1 RES     
    4245 C0         136.9637  -104.2639   -88.8945 C0            1 RES     
    4246 C0         135.7353  -104.9851   -88.3010 C0            1 RES     
    4247 C0         134.7479  -104.0609   -87.5847 C0            1 RES     
    4248 C0         135.3301  -103.4768   -86.2958 C0            1 RES     
    4249 H6         140.1467  -106.8586   -93.2381 H6            1 RES     
    4250 H6         141.6934  -106.8774   -94.0604 H6            1 RES     
    4251 H6         142.2104  -104.7024   -93.3609 H6            1 RES     
    4252 H6         139.2742  -105.0513   -94.3185 H6            1 RES     
    4253 H6         140.7575  -105.1852   -95.3177 H6            1 RES     
    4254 H6         141.1919  -102.7362   -94.9643 H6            1 RES     
    4255 H6         139.7026  -102.6355   -93.9625 H6            1 RES     
    4256 H6         139.1708  -101.8417   -96.1775 H6            1 RES     
    4257 H6         138.2655  -103.3340   -95.8298 H6            1 RES     
    4258 H6         139.0698  -103.2651   -98.1673 H6            1 RES     
    4259 H6         139.7407  -104.6681   -97.2907 H6            1 RES     
    4260 H6         141.9270  -103.5428   -97.0282 H6            1 RES     
    4261 H6         141.4193  -103.6507   -98.7448 H6            1 RES     
    4262 H6         141.1600  -101.1546   -96.9392 H6            1 RES     
    4263 H6         140.6711  -101.2284   -98.6706 H6            1 RES     
    4264 H6         142.8721  -100.1166   -98.2375 H6            1 RES     
    4265 H6         143.5034  -101.6343   -97.5021 H6            1 RES     
    4266 H6         143.2283  -102.7863   -99.7639 H6            1 RES     
    4267 H6         142.5128  -101.2650  -100.4119 H6            1 RES     
    4268 H6         144.6659  -100.0609  -100.0106 H6            1 RES     
    4269 H6         144.8268  -101.4609  -101.1301 H6            1 RES     
    4270 H6         145.6547  -101.4634   -98.1546 H6            1 RES     
    4271 H6         145.7506  -102.8708   -99.2906 H6            1 RES     
    4272 H6         146.7365  -101.3883   -99.5828 H6            1 RES     
    4273 H6         140.8931  -103.1264   -92.1413 H6            1 RES     
    4274 H6         141.4353  -104.4032   -91.1038 H6            1 RES     
    4275 H6         138.7400  -103.3223   -91.4352 H6            1 RES     
    4276 H6         138.6670  -105.0013   -92.0783 H6            1 RES     
    4277 H6         139.7654  -104.1316   -89.2861 H6            1 RES     
    4278 H6         139.8377  -105.7185   -90.0372 H6            1 RES     
    4279 H6         137.4492  -105.9956   -90.1074 H6            1 RES     
    4280 H6         138.2006  -105.9437   -88.5002 H6            1 RES     
    4281 H6         137.4926  -103.6762   -88.1146 H6            1 RES     
    4282 H6         136.6522  -103.5850   -89.7162 H6            1 RES     
    4283 H6         135.2050  -105.5015   -89.1331 H6            1 RES     
    4284 H6         136.0556  -105.7646   -87.5727 H6            1 RES     
    4285 H6         133.8607  -104.6691   -87.3016 H6            1 RES     
    4286 H6         134.4152  -103.2500   -88.2663 H6            1 RES     
    4287 H6         136.1997  -102.8223   -86.5025 H6            1 RES     
    4288 H6         134.5561  -102.8727   -85.7804 H6            1 RES     
    4289 H6         135.6468  -104.2968   -85.6132 H6            1 RES     
    4290 C0         141.8714  -109.0488   -92.5730 C0            1 RES     
    4291 C0         141.0896  -109.6510   -93.8269 C0            1 RES     
    4292 C0         141.0819  -111.2056   -93.6383 C0            1 RES     
    4293 C0         140.6146  -112.0228   -94.8597 C0            1 RES     
    4294 C0         140.6002  -113.5431   -94.6220 C0            1 RES     
    4295 C0         141.9560  -114.1762   -94.2611 C0            1 RES     
    4296 C0         143.0989  -113.8791   -95.2460 C0            1 RES     
    4297 C0         142.7930  -114.3171   -96.6892 C0            1 RES     
    4298 C0         143.9429  -114.0086   -97.6617 C0            1 RES     
    4299 C0         145.2086  -114.8358   -97.3741 C0            1 RES     
    4300 C0         146.3154  -114.6220   -98.4184 C0            1 RES     
    4301 C0         146.8801  -113.2014   -98.4170 C0            1 RES     
    4302 C0         139.6922  -109.1331   -94.3709 C0            1 RES     
    4303 C0         138.3772  -109.3067   -93.5593 C0            1 RES     
    4304 C0         137.8857  -107.9817   -92.9494 C0            1 RES     
    4305 C0         136.6398  -108.0521   -92.0819 C0            1 RES     
    4306 C0         135.3131  -108.2714   -92.7953 C0            1 RES     
    4307 C0         134.2015  -108.1300   -91.7354 C0            1 RES     
    4308 C0         132.7795  -108.1674   -92.2982 C0            1 RES     
    4309 C0         132.4630  -106.9432   -93.1585 C0            1 RES     
    4310 H6         141.7360  -109.7360   -91.7055 H6            1 RES     
    4311 H6         142.9445  -109.2305   -92.8086 H6            1 RES     
    4312 H6         141.7611  -109.4259   -94.6875 H6            1 RES     
    4313 H6         140.4346  -111.4629   -92.7722 H6            1 RES     
    4314 H6         142.1190  -111.5229   -93.3959 H6            1 RES     
    4315 H6         141.2546  -111.7766   -95.7328 H6            1 RES     
    4316 H6         139.5658  -111.7728   -95.1115 H6            1 RES     
    4317 H6         140.2118  -114.0256   -95.5442 H6            1 RES     
    4318 H6         139.8796  -113.7792   -93.8083 H6            1 RES     
    4319 H6         141.8101  -115.2765   -94.1924 H6            1 RES     
    4320 H6         142.2683  -113.8246   -93.2546 H6            1 RES     
    4321 H6         143.3262  -112.7916   -95.2343 H6            1 RES     
    4322 H6         143.9926  -114.4159   -94.8675 H6            1 RES     
    4323 H6         141.9067  -113.7571   -97.0541 H6            1 RES     
    4324 H6         142.5556  -115.4025   -96.7203 H6            1 RES     
    4325 H6         143.5920  -114.2574   -98.6869 H6            1 RES     
    4326 H6         144.1622  -112.9204   -97.6236 H6            1 RES     
    4327 H6         145.6186  -114.6004   -96.3704 H6            1 RES     
    4328 H6         144.9297  -115.9119   -97.3948 H6            1 RES     
    4329 H6         145.9307  -114.8702   -99.4314 H6            1 RES     
    4330 H6         147.1479  -115.3200   -98.1841 H6            1 RES     
    4331 H6         146.1058  -112.4591   -98.6975 H6            1 RES     
    4332 H6         147.2861  -112.9506   -97.4139 H6            1 RES     
    4333 H6         147.7030  -113.1336   -99.1593 H6            1 RES     
    4334 H6         139.5323  -109.6962   -95.3087 H6            1 RES     
    4335 H6         139.7476  -108.1272   -94.8279 H6            1 RES     
    4336 H6         137.5747  -109.5947   -94.2736 H6            1 RES     
    4337 H6         138.4732  -110.1267   -92.8191 H6            1 RES     
    4338 H6         137.7479  -107.2180   -93.7482 H6            1 RES     
    4339 H6         138.6243  -107.6041   -92.2512 H6            1 RES     
    4340 H6         136.7873  -108.7945   -91.2677 H6            1 RES     
    4341 H6         136.5469  -107.0458   -91.6413 H6            1 RES     
    4342 H6         135.2128  -107.4853   -93.5734 H6            1 RES     
    4343 H6         135.2765  -109.2705   -93.2773 H6            1 RES     
    4344 H6         134.3186  -108.9573   -91.0012 H6            1 RES     
    4345 H6         134.3161  -107.1701   -91.1810 H6            1 RES     
    4346 H6         132.0811  -108.1559   -91.4327 H6            1 RES     
    4347 H6         132.6199  -109.1026   -92.8706 H6            1 RES     
    4348 H6         133.0974  -106.9109   -94.0665 H6            1 RES     
    4349 H6         131.4015  -106.9848   -93.4781 H6            1 RES     
    4350 H6         132.6172  -106.0105   -92.5727 H6            1 RES     
    4351 C0         154.0777  -103.6889   -93.7587 C0            1 RES     
    4352 C1         152.8932  -104.0144   -92.8223 C1            1 RES     
    4353 C1         153.2850  -104.1849   -91.5328 C1            1 RES     
    4354 S2         152.0388  -104.6296   -90.5074 S2            1 RES     
    4355 C1         150.9114  -104.6538   -91.7799 C1            1 RES     
    4356 C1         151.5312  -104.3162   -92.9880 C1            1 RES     
    4357 C1         154.6873  -104.0394   -91.4603 C1            1 RES     
    4358 C1         155.1823  -103.8437   -92.7123 C1            1 RES     
    4359 C1         156.5718  -103.8347   -92.7355 C1            1 RES     
    4360 C1         157.0893  -103.9960   -91.4392 C1            1 RES     
    4361 S2         155.8564  -104.1648   -90.2838 S2            1 RES     
    4362 H3         151.0007  -104.3500   -93.9206 H3            1 RES     
    4363 H3         157.1705  -103.7239   -93.6317 H3            1 RES     
    4364 N4         160.4683  -103.3394   -89.9555 N4            1 RES     
    4365 C1         159.1619  -103.1686   -90.3135 C1            1 RES     
    4366 C1         158.4972  -104.1375   -91.0851 C1            1 RES     
    4367 C1         159.2032  -105.2843   -91.4527 C1            1 RES     
    4368 N4         158.6643  -106.3198   -92.1461 N4            1 RES     
    4369 S2         159.9260  -107.3847   -92.2228 S2            1 RES     
    4370 N4         161.1475  -106.6086   -91.4204 N4            1 RES     
    4371 C1         160.5531  -105.4469   -91.0518 C1            1 RES     
    4372 C1         161.1774  -104.4478   -90.3097 C1            1 RES     
    4373 H5         158.6382  -102.2684   -90.0037 H5            1 RES     
    4374 C0         154.1927  -102.2587   -94.3943 C0            1 RES     
    4375 C0         154.5576  -100.8759   -93.7335 C0            1 RES     
    4376 C0         154.3742   -99.8159   -94.8760 C0            1 RES     
    4377 C0         154.7345   -98.3640   -94.5377 C0            1 RES     
    4378 C0         154.4662   -97.4025   -95.7194 C0            1 RES     
    4379 C0         155.2892   -97.6645   -97.0000 C0            1 RES     
    4380 C0         156.8141   -97.6930   -96.7957 C0            1 RES     
    4381 C0         157.3644   -96.3944   -96.1795 C0            1 RES     
    4382 C0         158.8777   -96.4466   -95.9250 C0            1 RES     
    4383 C0         159.7077   -96.5067   -97.2184 C0            1 RES     
    4384 C0         161.2208   -96.4428   -96.9563 C0            1 RES     
    4385 C0         161.7531   -97.6605   -96.1999 C0            1 RES     
    4386 C0         153.8480  -100.4408   -92.4098 C0            1 RES     
    4387 C0         152.3112  -100.1747   -92.4204 C0            1 RES     
    4388 C0         151.6374  -101.1188   -91.4201 C0            1 RES     
    4389 C0         150.1207  -101.2724   -91.4893 C0            1 RES     
    4390 C0         149.2982  -100.1689   -90.8401 C0            1 RES     
    4391 C0         147.8090  -100.5471   -90.9828 C0            1 RES     
    4392 C0         146.8512   -99.6347   -90.2132 C0            1 RES     
    4393 C0         146.9945   -99.7890   -88.6976 C0            1 RES     
    4394 H6         153.2692  -102.0746   -94.8812 H6            1 RES     
    4395 H6         154.9684  -102.3732   -95.1848 H6            1 RES     
    4396 H6         155.6374  -100.9257   -93.4689 H6            1 RES     
    4397 H6         153.3146   -99.8202   -95.2133 H6            1 RES     
    4398 H6         155.0012  -100.1339   -95.7364 H6            1 RES     
    4399 H6         155.7930   -98.2996   -94.2132 H6            1 RES     
    4400 H6         154.0926   -98.0133   -93.7045 H6            1 RES     
    4401 H6         154.6628   -96.3669   -95.3729 H6            1 RES     
    4402 H6         153.3877   -97.4446   -95.9892 H6            1 RES     
    4403 H6         155.0381   -96.8715   -97.7394 H6            1 RES     
    4404 H6         154.9822   -98.6324   -97.4509 H6            1 RES     
    4405 H6         157.0803   -98.5521   -96.1444 H6            1 RES     
    4406 H6         157.2767   -97.8657   -97.7896 H6            1 RES     
    4407 H6         156.8898   -96.2388   -95.1894 H6            1 RES     
    4408 H6         157.1163   -95.5248   -96.8267 H6            1 RES     
    4409 H6         159.1576   -95.5205   -95.3771 H6            1 RES     
    4410 H6         159.0963   -97.3171   -95.2713 H6            1 RES     
    4411 H6         159.4830   -97.4294   -97.7926 H6            1 RES     
    4412 H6         159.4356   -95.6290   -97.8444 H6            1 RES     
    4413 H6         161.4670   -95.5165   -96.3927 H6            1 RES     
    4414 H6         161.7397   -96.3977   -97.9380 H6            1 RES     
    4415 H6         161.3108   -97.7320   -95.1858 H6            1 RES     
    4416 H6         161.5303   -98.5901   -96.7657 H6            1 RES     
    4417 H6         162.8535   -97.5696   -96.0854 H6            1 RES     
    4418 H6         154.3321   -99.5032   -92.0620 H6            1 RES     
    4419 H6         154.1261  -101.1636   -91.6131 H6            1 RES     
    4420 H6         152.0894   -99.1279   -92.1136 H6            1 RES     
    4421 H6         151.9047  -100.3292   -93.4406 H6            1 RES     
    4422 H6         151.9823  -100.9457   -90.3789 H6            1 RES     
    4423 H6         151.9900  -102.0833   -91.7181 H6            1 RES     
    4424 H6         149.8239  -101.4234   -92.5300 H6            1 RES     
    4425 H6         149.8755  -102.2095   -90.9395 H6            1 RES     
    4426 H6         149.5946  -100.1246   -89.7707 H6            1 RES     
    4427 H6         149.4929   -99.1842   -91.3150 H6            1 RES     
    4428 H6         147.5476  -100.5112   -92.0648 H6            1 RES     
    4429 H6         147.6364  -101.5896   -90.6306 H6            1 RES     
    4430 H6         145.8133   -99.9329   -90.4798 H6            1 RES     
    4431 H6         147.0012   -98.5766   -90.5146 H6            1 RES     
    4432 H6         147.9970   -99.4708   -88.3496 H6            1 RES     
    4433 H6         146.2352   -99.1618   -88.1880 H6            1 RES     
    4434 H6         146.8278  -100.8494   -88.4037 H6            1 RES     
    4435 C0         154.0627  -104.8285   -94.8527 C0            1 RES     
    4436 C0         153.7233  -104.6287   -96.3990 C0            1 RES     
    4437 C0         153.2980  -106.0340   -96.9436 C0            1 RES     
    4438 C0         153.1791  -106.1464   -98.4769 C0            1 RES     
    4439 C0         152.7361  -107.5367   -98.9659 C0            1 RES     
    4440 C0         153.6645  -108.7050   -98.5891 C0            1 RES     
    4441 C0         155.1371  -108.5266   -98.9943 C0            1 RES     
    4442 C0         155.3332  -108.2939  -100.5028 C0            1 RES     
    4443 C0         156.8097  -108.1124  -100.8905 C0            1 RES     
    4444 C0         157.6436  -109.3901  -100.6875 C0            1 RES     
    4445 C0         159.0888  -109.2499  -101.1905 C0            1 RES     
    4446 C0         159.9071  -108.2300  -100.3985 C0            1 RES     
    4447 C0         152.8040  -103.4812   -96.9950 C0            1 RES     
    4448 C0         151.2732  -103.4301   -96.7268 C0            1 RES     
    4449 C0         150.8886  -102.3163   -95.7364 C0            1 RES     
    4450 C0         149.4204  -102.2206   -95.3557 C0            1 RES     
    4451 C0         148.4673  -101.6773   -96.4110 C0            1 RES     
    4452 C0         147.0905  -101.5144   -95.7353 C0            1 RES     
    4453 C0         146.0335  -100.8312   -96.6049 C0            1 RES     
    4454 C0         146.3598   -99.3603   -96.8675 C0            1 RES     
    4455 H6         153.4492  -105.6724   -94.4597 H6            1 RES     
    4456 H6         155.0728  -105.2971   -94.8542 H6            1 RES     
    4457 H6         154.7103  -104.3827   -96.8545 H6            1 RES     
    4458 H6         152.3233  -106.3186   -96.4916 H6            1 RES     
    4459 H6         154.0584  -106.7718   -96.6084 H6            1 RES     
    4460 H6         154.1476  -105.8664   -98.9419 H6            1 RES     
    4461 H6         152.3969  -105.4592   -98.8536 H6            1 RES     
    4462 H6         152.6443  -107.4923  -100.0722 H6            1 RES     
    4463 H6         151.7212  -107.7580   -98.5683 H6            1 RES     
    4464 H6         153.2636  -109.6258   -99.0665 H6            1 RES     
    4465 H6         153.6263  -108.8638   -97.4902 H6            1 RES     
    4466 H6         155.5764  -107.6745   -98.4327 H6            1 RES     
    4467 H6         155.6675  -109.4486   -98.6801 H6            1 RES     
    4468 H6         154.8093  -107.3593  -100.7929 H6            1 RES     
    4469 H6         154.8930  -109.1338  -101.0826 H6            1 RES     
    4470 H6         156.8437  -107.8443  -101.9689 H6            1 RES     
    4471 H6         157.2317  -107.2659  -100.3081 H6            1 RES     
    4472 H6         157.6679  -109.6840   -99.6179 H6            1 RES     
    4473 H6         157.1643  -110.2104  -101.2651 H6            1 RES     
    4474 H6         159.0878  -108.9731  -102.2672 H6            1 RES     
    4475 H6         159.5854  -110.2389  -101.0882 H6            1 RES     
    4476 H6         159.4904  -107.2082  -100.5048 H6            1 RES     
    4477 H6         159.9315  -108.5089   -99.3235 H6            1 RES     
    4478 H6         160.9480  -108.2163  -100.7846 H6            1 RES     
    4479 H6         152.9045  -103.5849   -98.0910 H6            1 RES     
    4480 H6         153.2556  -102.4746   -96.9148 H6            1 RES     
    4481 H6         150.7732  -103.1379   -97.6764 H6            1 RES     
    4482 H6         150.8867  -104.4295   -96.4417 H6            1 RES     
    4483 H6         151.2483  -101.3299   -96.1079 H6            1 RES     
    4484 H6         151.3577  -102.5021   -94.7767 H6            1 RES     
    4485 H6         149.0681  -103.1975   -94.9588 H6            1 RES     
    4486 H6         149.3876  -101.4696   -94.5492 H6            1 RES     
    4487 H6         148.8573  -100.6926   -96.7449 H6            1 RES     
    4488 H6         148.4025  -102.3603   -97.2835 H6            1 RES     
    4489 H6         146.7236  -102.5258   -95.4530 H6            1 RES     
    4490 H6         147.1879  -100.9189   -94.7984 H6            1 RES     
    4491 H6         145.0731  -100.8646   -96.0452 H6            1 RES     
    4492 H6         145.9085  -101.3827   -97.5578 H6            1 RES     
    4493 H6         147.2896   -99.2508   -97.4602 H6            1 RES     
    4494 H6         145.5284   -98.8968   -97.4372 H6            1 RES     
    4495 H6         146.4743   -98.8136   -95.9057 H6            1 RES     
    4496 C0         166.6122  -104.2603   -90.2361 C0            1 RES     
    4497 C1         165.1153  -104.4312   -89.8959 C1            1 RES     
    4498 C1         164.9213  -105.1679   -88.7712 C1            1 RES     
    4499 S2         163.3079  -105.4501   -88.4254 S2            1 RES     
    4500 C1         162.7954  -104.6180   -89.8167 C1            1 RES     
    4501 C1         163.8976  -104.1357   -90.5310 C1            1 RES     
    4502 C1         166.1769  -105.5810   -88.2757 C1            1 RES     
    4503 C1         167.1535  -105.1605   -89.1244 C1            1 RES     
    4504 C1         168.4050  -105.6537   -88.7756 C1            1 RES     
    4505 C1         168.3226  -106.4308   -87.6079 C1            1 RES     
    4506 S2         166.7312  -106.5244   -87.0229 S2            1 RES     
    4507 H3         163.7824  -103.6480   -91.4804 H3            1 RES     
    4508 H3         169.3157  -105.4675   -89.3323 H3            1 RES     
    4509 N4         170.9025  -107.6145   -85.1598 N4            1 RES     
    4510 C1         169.9145  -106.8646   -85.7304 C1            1 RES     
    4511 C1         169.4092  -107.1913   -87.0007 C1            1 RES     
    4512 C1         169.9296  -108.3135   -87.6476 C1            1 RES     
    4513 N4         169.4912  -108.7708   -88.8485 N4            1 RES     
    4514 S2         170.4117  -110.1264   -89.0648 S2            1 RES     
    4515 N4         171.3592  -110.1810   -87.7092 N4            1 RES     
    4516 C1         170.9413  -109.0872   -87.0254 C1            1 RES     
    4517 C1         171.4289  -108.7093   -85.7771 C1            1 RES     
    4518 H5         169.5248  -106.0022   -85.1964 H5            1 RES     
    4519 C0         167.2812  -102.8471   -90.1006 C0            1 RES     
    4520 C0         167.6540  -102.0147   -88.8161 C0            1 RES     
    4521 C0         168.1734  -100.6369   -89.3584 C0            1 RES     
    4522 C0         168.6840   -99.6316   -88.3187 C0            1 RES     
    4523 C0         169.1212   -98.2942   -88.9613 C0            1 RES     
    4524 C0         170.3003   -98.3792   -89.9555 C0            1 RES     
    4525 C0         171.5752   -99.0331   -89.3941 C0            1 RES     
    4526 C0         172.1124   -98.3260   -88.1371 C0            1 RES     
    4527 C0         173.3518   -99.0135   -87.5467 C0            1 RES     
    4528 C0         174.5870   -98.9223   -88.4586 C0            1 RES     
    4529 C0         175.8491   -99.5120   -87.8093 C0            1 RES     
    4530 C0         175.7577  -101.0205   -87.5759 C0            1 RES     
    4531 C0         166.5975  -101.8366   -87.6771 C0            1 RES     
    4532 C0         165.2887  -101.0400   -87.9690 C0            1 RES     
    4533 C0         164.0856  -101.9547   -87.7202 C0            1 RES     
    4534 C0         162.7247  -101.5078   -88.2466 C0            1 RES     
    4535 C0         161.9802  -100.4777   -87.4098 C0            1 RES     
    4536 C0         160.6229  -100.2094   -88.0932 C0            1 RES     
    4537 C0         159.6680   -99.3364   -87.2758 C0            1 RES     
    4538 C0         159.1671  -100.0462   -86.0162 C0            1 RES     
    4539 H6         166.6886  -102.1814   -90.6746 H6            1 RES     
    4540 H6         168.2585  -102.9569   -90.6226 H6            1 RES     
    4541 H6         168.5032  -102.5448   -88.3298 H6            1 RES     
    4542 H6         167.3589  -100.1358   -89.9258 H6            1 RES     
    4543 H6         169.0003  -100.8437   -90.0711 H6            1 RES     
    4544 H6         169.5159  -100.0759   -87.7353 H6            1 RES     
    4545 H6         167.8617   -99.3816   -87.6183 H6            1 RES     
    4546 H6         169.3902   -97.5914   -88.1458 H6            1 RES     
    4547 H6         168.2549   -97.8421   -89.4932 H6            1 RES     
    4548 H6         170.5419   -97.3466   -90.2927 H6            1 RES     
    4549 H6         169.9888   -98.9470   -90.8581 H6            1 RES     
    4550 H6         171.3669  -100.0980   -89.1579 H6            1 RES     
    4551 H6         172.3399   -99.0082   -90.1980 H6            1 RES     
    4552 H6         171.3346   -98.3600   -87.3472 H6            1 RES     
    4553 H6         172.3375   -97.2601   -88.3604 H6            1 RES     
    4554 H6         173.5919   -98.5054   -86.5873 H6            1 RES     
    4555 H6         173.0977  -100.0716   -87.3260 H6            1 RES     
    4556 H6         174.4073   -99.4385   -89.4244 H6            1 RES     
    4557 H6         174.7842   -97.8480   -88.6664 H6            1 RES     
    4558 H6         176.0530   -98.9969   -86.8452 H6            1 RES     
    4559 H6         176.7076   -99.3238   -88.4895 H6            1 RES     
    4560 H6         174.9491  -101.2708   -86.8599 H6            1 RES     
    4561 H6         175.5749  -101.5463   -88.5371 H6            1 RES     
    4562 H6         176.7153  -101.3847   -87.1484 H6            1 RES     
    4563 H6         167.1009  -101.3243   -86.8295 H6            1 RES     
    4564 H6         166.3731  -102.8383   -87.2521 H6            1 RES     
    4565 H6         165.2023  -100.1606   -87.2921 H6            1 RES     
    4566 H6         165.2919  -100.6718   -89.0150 H6            1 RES     
    4567 H6         164.0233  -102.2914   -86.6640 H6            1 RES     
    4568 H6         164.3036  -102.8139   -88.3181 H6            1 RES     
    4569 H6         162.8346  -101.1696   -89.2799 H6            1 RES     
    4570 H6         162.0825  -102.4176   -88.2663 H6            1 RES     
    4571 H6         161.8350  -100.9177   -86.4005 H6            1 RES     
    4572 H6         162.5585   -99.5341   -87.3180 H6            1 RES     
    4573 H6         160.8221   -99.7085   -89.0678 H6            1 RES     
    4574 H6         160.0997  -101.1685   -88.3100 H6            1 RES     
    4575 H6         158.7800   -99.1216   -87.9102 H6            1 RES     
    4576 H6         160.1547   -98.3732   -87.0146 H6            1 RES     
    4577 H6         159.9960  -100.2589   -85.3126 H6            1 RES     
    4578 H6         158.4283   -99.4025   -85.4973 H6            1 RES     
    4579 H6         158.6680  -101.0028   -86.2892 H6            1 RES     
    4580 C0         166.7756  -104.8609   -91.6880 C0            1 RES     
    4581 C0         167.1237  -104.0294   -93.0047 C0            1 RES     
    4582 C0         166.6463  -104.8992   -94.2162 C0            1 RES     
    4583 C0         167.1169  -104.4226   -95.6052 C0            1 RES     
    4584 C0         166.6053  -105.2922   -96.7672 C0            1 RES     
    4585 C0         167.0274  -106.7719   -96.7310 C0            1 RES     
    4586 C0         168.5405  -107.0171   -96.6093 C0            1 RES     
    4587 C0         169.3591  -106.3664   -97.7383 C0            1 RES     
    4588 C0         170.8695  -106.6165   -97.5993 C0            1 RES     
    4589 C0         171.2512  -108.0959   -97.7856 C0            1 RES     
    4590 C0         172.7698  -108.3304   -97.7718 C0            1 RES     
    4591 C0         173.4155  -108.0230   -96.4206 C0            1 RES     
    4592 C0         166.7911  -102.4953   -93.2347 C0            1 RES     
    4593 C0         165.3306  -101.9830   -93.3846 C0            1 RES     
    4594 C0         164.8454  -101.2224   -92.1374 C0            1 RES     
    4595 C0         163.4065  -100.7334   -92.1548 C0            1 RES     
    4596 C0         163.0901   -99.5501   -93.0586 C0            1 RES     
    4597 C0         161.6319   -99.1386   -92.7701 C0            1 RES     
    4598 C0         161.1810   -97.8605   -93.4796 C0            1 RES     
    4599 C0         161.9011   -96.6185   -92.9523 C0            1 RES     
    4600 H6         165.8867  -105.5010   -91.8958 H6            1 RES     
    4601 H6         167.5741  -105.6353   -91.6363 H6            1 RES     
    4602 H6         168.2380  -104.0210   -93.0227 H6            1 RES     
    4603 H6         165.5358  -104.9443   -94.2155 H6            1 RES     
    4604 H6         167.0301  -105.9311   -94.0648 H6            1 RES     
    4605 H6         168.2259  -104.3747   -95.6207 H6            1 RES     
    4606 H6         166.7187  -103.4121   -95.8206 H6            1 RES     
    4607 H6         166.9672  -104.8377   -97.7141 H6            1 RES     
    4608 H6         165.4942  -105.2490   -96.7946 H6            1 RES     
    4609 H6         166.6528  -107.2553   -97.6597 H6            1 RES     
    4610 H6         166.5269  -107.2750   -95.8762 H6            1 RES     
    4611 H6         168.9011  -106.6362   -95.6299 H6            1 RES     
    4612 H6         168.6865  -108.1165   -96.6195 H6            1 RES     
    4613 H6         169.2123  -105.2668   -97.7003 H6            1 RES     
    4614 H6         169.0075  -106.7302   -98.7280 H6            1 RES     
    4615 H6         171.3824  -106.0245   -98.3883 H6            1 RES     
    4616 H6         171.2052  -106.2412   -96.6093 H6            1 RES     
    4617 H6         170.7881  -108.7286   -97.0005 H6            1 RES     
    4618 H6         170.8682  -108.4292   -98.7748 H6            1 RES     
    4619 H6         173.2527  -107.7186   -98.5645 H6            1 RES     
    4620 H6         172.9538  -109.4020   -98.0017 H6            1 RES     
    4621 H6         173.3116  -106.9508   -96.1583 H6            1 RES     
    4622 H6         172.9536  -108.6445   -95.6241 H6            1 RES     
    4623 H6         174.4993  -108.2590   -96.4704 H6            1 RES     
    4624 H6         167.2878  -102.2426   -94.1894 H6            1 RES     
    4625 H6         167.3858  -101.8188   -92.5925 H6            1 RES     
    4626 H6         165.3216  -101.2190   -94.1930 H6            1 RES     
    4627 H6         164.6522  -102.8033   -93.6951 H6            1 RES     
    4628 H6         165.5307  -100.3736   -91.9134 H6            1 RES     
    4629 H6         164.8464  -101.8865   -91.2804 H6            1 RES     
    4630 H6         162.7199  -101.5855   -92.3509 H6            1 RES     
    4631 H6         163.2271  -100.3515   -91.1363 H6            1 RES     
    4632 H6         163.7875   -98.7268   -92.7953 H6            1 RES     
    4633 H6         163.2232   -99.8147   -94.1282 H6            1 RES     
    4634 H6         160.9696   -99.9755   -93.0834 H6            1 RES     
    4635 H6         161.4832   -98.9838   -91.6765 H6            1 RES     
    4636 H6         160.0965   -97.7310   -93.2696 H6            1 RES     
    4637 H6         161.3210   -97.9616   -94.5741 H6            1 RES     
    4638 H6         162.9880   -96.6597   -93.1641 H6            1 RES     
    4639 H6         161.4851   -95.7166   -93.4463 H6            1 RES     
    4640 H6         161.7471   -96.5208   -91.8552 H6            1 RES     
    4641 C0         176.2933  -110.5639   -84.2036 C0            1 RES     
    4642 C1         174.7856  -110.2808   -84.3837 C1            1 RES     
    4643 C1         174.0080  -111.2350   -83.8094 C1            1 RES     
    4644 S2         172.3694  -111.0072   -84.0655 S2            1 RES     
    4645 C1         172.6421  -109.6196   -85.0094 C1            1 RES     
    4646 C1         174.0132  -109.3598   -85.1109 C1            1 RES     
    4647 C1         174.8429  -112.2232   -83.2444 C1            1 RES     
    4648 C1         176.1409  -111.9242   -83.5214 C1            1 RES     
    4649 C1         177.0120  -112.9294   -83.1189 C1            1 RES     
    4650 C1         176.3081  -113.9742   -82.4968 C1            1 RES     
    4651 S2         174.6372  -113.6744   -82.4581 S2            1 RES     
    4652 H3         174.3910  -108.5681   -85.7296 H3            1 RES     
    4653 H3         178.0847  -112.9097   -83.2702 H3            1 RES     
    4654 N4         177.3884  -116.7884   -80.2688 N4            1 RES     
    4655 C1         176.8964  -115.5813   -80.6751 C1            1 RES     
    4656 C1         176.8714  -115.2392   -82.0382 C1            1 RES     
    4657 C1         177.3412  -116.1756   -82.9609 C1            1 RES     
    4658 N4         177.3197  -115.9948   -84.3063 N4            1 RES     
    4659 S2         177.9259  -117.4284   -84.8624 S2            1 RES     
    4660 N4         178.2278  -118.2913   -83.4831 N4            1 RES     
    4661 C1         177.8288  -117.4298   -82.5151 C1            1 RES     
    4662 C1         177.8579  -117.7136   -81.1522 C1            1 RES     
    4663 H5         176.5301  -114.8783   -79.9321 H5            1 RES     
    4664 C0         177.1504  -109.6351   -83.2734 C0            1 RES     
    4665 C0         177.1637  -109.4968   -81.7041 C0            1 RES     
    4666 C0         178.1454  -108.3093   -81.4067 C0            1 RES     
    4667 C0         178.4160  -107.9874   -79.9318 C0            1 RES     
    4668 C0         179.3548  -106.7701   -79.7597 C0            1 RES     
    4669 C0         180.7786  -106.9317   -80.3362 C0            1 RES     
    4670 C0         181.5516  -108.1578   -79.8191 C0            1 RES     
    4671 C0         181.6946  -108.1784   -78.2869 C0            1 RES     
    4672 C0         182.4171  -109.4305   -77.7695 C0            1 RES     
    4673 C0         183.8978  -109.4889   -78.1815 C0            1 RES     
    4674 C0         184.6390  -110.6853   -77.5637 C0            1 RES     
    4675 C0         184.1317  -112.0356   -78.0712 C0            1 RES     
    4676 C0         175.8131  -109.3496   -80.9299 C0            1 RES     
    4677 C0         174.9357  -108.0811   -81.1616 C0            1 RES     
    4678 C0         173.5614  -108.5164   -81.6791 C0            1 RES     
    4679 C0         172.6520  -107.4498   -82.2825 C0            1 RES     
    4680 C0         171.8873  -106.5765   -81.2986 C0            1 RES     
    4681 C0         171.0032  -105.6112   -82.1158 C0            1 RES     
    4682 C0         170.0234  -104.7899   -81.2746 C0            1 RES     
    4683 C0         168.9248  -105.6551   -80.6536 C0            1 RES     
    4684 H6         176.9941  -108.6445   -83.6169 H6            1 RES     
    4685 H6         178.2034  -109.9075   -83.5116 H6            1 RES     
    4686 H6         177.6135  -110.4339   -81.3066 H6            1 RES     
    4687 H6         177.7519  -107.3818   -81.8774 H6            1 RES     
    4688 H6         179.1174  -108.5445   -81.8908 H6            1 RES     
    4689 H6         178.8313  -108.8777   -79.4173 H6            1 RES     
    4690 H6         177.4625  -107.7124   -79.4374 H6            1 RES     
    4691 H6         179.4306  -106.5435   -78.6761 H6            1 RES     
    4692 H6         178.8902  -105.8782   -80.2358 H6            1 RES     
    4693 H6         181.3554  -106.0116   -80.0931 H6            1 RES     
    4694 H6         180.7289  -106.9960   -81.4442 H6            1 RES     
    4695 H6         181.0370  -109.0830   -80.1542 H6            1 RES     
    4696 H6         182.5552  -108.1384   -80.2924 H6            1 RES     
    4697 H6         180.6828  -108.1959   -77.8330 H6            1 RES     
    4698 H6         182.2193  -107.2629   -77.9359 H6            1 RES     
    4699 H6         182.3676  -109.4113   -76.6589 H6            1 RES     
    4700 H6         181.8693  -110.3277   -78.1267 H6            1 RES     
    4701 H6         184.0020  -109.5351   -79.2853 H6            1 RES     
    4702 H6         184.3934  -108.5612   -77.8208 H6            1 RES     
    4703 H6         184.5569  -110.6483   -76.4554 H6            1 RES     
    4704 H6         185.7141  -110.6019   -77.8331 H6            1 RES     
    4705 H6         183.0735  -112.2031   -77.7863 H6            1 RES     
    4706 H6         184.2292  -112.0904   -79.1763 H6            1 RES     
    4707 H6         184.7382  -112.8488   -77.6204 H6            1 RES     
    4708 H6         176.0434  -109.3846   -79.8436 H6            1 RES     
    4709 H6         175.2240  -110.2797   -81.0797 H6            1 RES     
    4710 H6         174.7878  -107.5238   -80.2094 H6            1 RES     
    4711 H6         175.4305  -107.4025   -81.8858 H6            1 RES     
    4712 H6         173.0167  -109.1497   -80.9475 H6            1 RES     
    4713 H6         173.8002  -109.1318   -82.5202 H6            1 RES     
    4714 H6         173.2305  -106.8407   -82.9814 H6            1 RES     
    4715 H6         171.8848  -107.9937   -82.8794 H6            1 RES     
    4716 H6         171.2641  -107.2525   -80.6755 H6            1 RES     
    4717 H6         172.5766  -106.0050   -80.6418 H6            1 RES     
    4718 H6         171.6744  -104.9146   -82.6676 H6            1 RES     
    4719 H6         170.4087  -106.1731   -82.8718 H6            1 RES     
    4720 H6         169.5272  -104.0597   -81.9512 H6            1 RES     
    4721 H6         170.5688  -104.2264   -80.4886 H6            1 RES     
    4722 H6         169.3415  -106.3858   -79.9326 H6            1 RES     
    4723 H6         168.2042  -105.0077   -80.1139 H6            1 RES     
    4724 H6         168.3744  -106.2042   -81.4500 H6            1 RES     
    4725 C0         176.8758  -110.6406   -85.6701 C0            1 RES     
    4726 C0         177.8874  -109.5946   -86.3248 C0            1 RES     
    4727 C0         177.7439  -109.7522   -87.8762 C0            1 RES     
    4728 C0         178.8146  -109.0326   -88.7210 C0            1 RES     
    4729 C0         178.6211  -109.1947   -90.2391 C0            1 RES     
    4730 C0         178.6559  -110.6400   -90.7670 C0            1 RES     
    4731 C0         179.9047  -111.4483   -90.3772 C0            1 RES     
    4732 C0         181.2226  -110.7957   -90.8304 C0            1 RES     
    4733 C0         182.4610  -111.6131   -90.4288 C0            1 RES     
    4734 C0         182.5471  -112.9666   -91.1567 C0            1 RES     
    4735 C0         183.8454  -113.7302   -90.8526 C0            1 RES     
    4736 C0         183.9597  -114.1684   -89.3925 C0            1 RES     
    4737 C0         178.0206  -108.0680   -85.9141 C0            1 RES     
    4738 C0         176.8891  -107.0386   -86.1932 C0            1 RES     
    4739 C0         176.1351  -106.6349   -84.9134 C0            1 RES     
    4740 C0         174.9658  -105.6794   -85.0845 C0            1 RES     
    4741 C0         175.3001  -104.2288   -85.4024 C0            1 RES     
    4742 C0         173.9763  -103.4388   -85.3530 C0            1 RES     
    4743 C0         174.1353  -101.9242   -85.4978 C0            1 RES     
    4744 C0         174.8465  -101.2975   -84.2975 C0            1 RES     
    4745 H6         176.0220  -110.7961   -86.3700 H6            1 RES     
    4746 H6         177.3968  -111.6200   -85.7669 H6            1 RES     
    4747 H6         178.8911  -109.9893   -86.0440 H6            1 RES     
    4748 H6         176.7422  -109.3845   -88.1873 H6            1 RES     
    4749 H6         177.7985  -110.8365   -88.1133 H6            1 RES     
    4750 H6         179.8214  -109.3922   -88.4216 H6            1 RES     
    4751 H6         178.7675  -107.9394   -88.5519 H6            1 RES     
    4752 H6         179.4165  -108.6072   -90.7456 H6            1 RES     
    4753 H6         177.6496  -108.7408   -90.5345 H6            1 RES     
    4754 H6         178.5788  -110.5993   -91.8755 H6            1 RES     
    4755 H6         177.7623  -111.1868   -90.3973 H6            1 RES     
    4756 H6         179.9267  -111.5899   -89.2755 H6            1 RES     
    4757 H6         179.7954  -112.4479   -90.8450 H6            1 RES     
    4758 H6         181.3202  -109.8052   -90.3390 H6            1 RES     
    4759 H6         181.2165  -110.6389   -91.9308 H6            1 RES     
    4760 H6         183.3596  -111.0168   -90.6989 H6            1 RES     
    4761 H6         182.4554  -111.7542   -89.3271 H6            1 RES     
    4762 H6         181.6855  -113.6149   -90.8953 H6            1 RES     
    4763 H6         182.5195  -112.7721   -92.2512 H6            1 RES     
    4764 H6         184.7231  -113.1046   -91.1248 H6            1 RES     
    4765 H6         183.8625  -114.6438   -91.4851 H6            1 RES     
    4766 H6         184.0016  -113.2949   -88.7111 H6            1 RES     
    4767 H6         183.0972  -114.8115   -89.1160 H6            1 RES     
    4768 H6         184.8945  -114.7521   -89.2574 H6            1 RES     
    4769 H6         178.8946  -107.7016   -86.4832 H6            1 RES     
    4770 H6         178.4494  -107.9236   -84.9046 H6            1 RES     
    4771 H6         177.3675  -106.0958   -86.5390 H6            1 RES     
    4772 H6         176.2236  -107.3913   -87.0070 H6            1 RES     
    4773 H6         176.8471  -106.2303   -84.1587 H6            1 RES     
    4774 H6         175.6526  -107.5054   -84.4831 H6            1 RES     
    4775 H6         174.2410  -106.0961   -85.8173 H6            1 RES     
    4776 H6         174.4906  -105.6359   -84.0906 H6            1 RES     
    4777 H6         176.0017  -103.8641   -84.6226 H6            1 RES     
    4778 H6         175.7800  -104.1363   -86.3990 H6            1 RES     
    4779 H6         173.3226  -103.8108   -86.1724 H6            1 RES     
    4780 H6         173.4488  -103.6287   -84.3898 H6            1 RES     
    4781 H6         173.1135  -101.4877   -85.5447 H6            1 RES     
    4782 H6         174.6674  -101.6845   -86.4396 H6            1 RES     
    4783 H6         175.8907  -101.6580   -84.2115 H6            1 RES     
    4784 H6         174.8688  -100.1952   -84.4197 H6            1 RES     
    4785 H6         174.3001  -101.5360   -83.3586 H6            1 RES     
    4786 C0         181.1723  -121.6418   -79.3740 C0            1 RES     
    4787 C1         179.9597  -120.7826   -79.7949 C1            1 RES     
    4788 C1         178.8287  -121.5206   -79.9411 C1            1 RES     
    4789 S2         177.5168  -120.6350   -80.4862 S2            1 RES     
    4790 C1         178.4381  -119.2098   -80.5914 C1            1 RES     
    4791 C1         179.7595  -119.4526   -80.2007 C1            1 RES     
    4792 C1         179.1334  -122.8755   -79.6876 C1            1 RES     
    4793 C1         180.4671  -122.9970   -79.4478 C1            1 RES     
    4794 C1         180.8642  -124.3236   -79.3310 C1            1 RES     
    4795 C1         179.7602  -125.1834   -79.4581 C1            1 RES     
    4796 S2         178.3197  -124.3256   -79.7278 S2            1 RES     
    4797 H3         180.5150  -118.6932   -80.2708 H3            1 RES     
    4798 H3         181.8855  -124.6472   -79.1697 H3            1 RES     
    4799 N4         179.2268  -128.7805   -78.5489 N4            1 RES     
    4800 C1         179.2145  -127.4171   -78.4782 C1            1 RES     
    4801 C1         179.8028  -126.6410   -79.4918 C1            1 RES     
    4802 C1         180.3768  -127.3031   -80.5786 C1            1 RES     
    4803 N4         180.9256  -126.6738   -81.6492 N4            1 RES     
    4804 S2         181.3674  -127.9420   -82.6128 S2            1 RES     
    4805 N4         180.9045  -129.2749   -81.7483 N4            1 RES     
    4806 C1         180.3593  -128.7192   -80.6381 C1            1 RES     
    4807 C1         179.7877  -129.4463   -79.5972 C1            1 RES     
    4808 H5         178.7517  -126.9324   -77.6229 H5            1 RES     
    4809 C0         181.7782  -121.4751   -77.9360 C0            1 RES     
    4810 C0         181.2049  -121.9031   -76.5324 C0            1 RES     
    4811 C0         182.2278  -121.3398   -75.4841 C0            1 RES     
    4812 C0         181.9619  -121.6708   -74.0103 C0            1 RES     
    4813 C0         183.0021  -121.0226   -73.0666 C0            1 RES     
    4814 C0         184.4636  -121.4846   -73.2576 C0            1 RES     
    4815 C0         184.6791  -123.0057   -73.1687 C0            1 RES     
    4816 C0         184.2010  -123.6057   -71.8345 C0            1 RES     
    4817 C0         184.3656  -125.1309   -71.7705 C0            1 RES     
    4818 C0         185.8362  -125.5814   -71.7596 C0            1 RES     
    4819 C0         185.9904  -127.1000   -71.5798 C0            1 RES     
    4820 C0         185.4375  -127.9051   -72.7564 C0            1 RES     
    4821 C0         179.7280  -121.5488   -76.1602 C0            1 RES     
    4822 C0         179.3168  -120.0515   -76.0140 C0            1 RES     
    4823 C0         178.1964  -119.7451   -77.0126 C0            1 RES     
    4824 C0         177.8577  -118.2819   -77.2829 C0            1 RES     
    4825 C0         176.9825  -117.5876   -76.2498 C0            1 RES     
    4826 C0         176.7277  -116.1472   -76.7416 C0            1 RES     
    4827 C0         175.7050  -115.3696   -75.9101 C0            1 RES     
    4828 C0         174.2888  -115.9293   -76.0604 C0            1 RES     
    4829 H6         181.9929  -120.4433   -77.8216 H6            1 RES     
    4830 H6         182.7513  -122.0138   -77.9860 H6            1 RES     
    4831 H6         181.2429  -123.0148   -76.4996 H6            1 RES     
    4832 H6         182.2666  -120.2317   -75.5689 H6            1 RES     
    4833 H6         183.2333  -121.7317   -75.7481 H6            1 RES     
    4834 H6         181.9335  -122.7699   -73.8656 H6            1 RES     
    4835 H6         180.9776  -121.2549   -73.7147 H6            1 RES     
    4836 H6         182.6949  -121.2293   -72.0206 H6            1 RES     
    4837 H6         182.9718  -119.9174   -73.1908 H6            1 RES     
    4838 H6         185.0870  -120.9851   -72.4828 H6            1 RES     
    4839 H6         184.8398  -121.1388   -74.2441 H6            1 RES     
    4840 H6         184.1463  -123.5006   -74.0079 H6            1 RES     
    4841 H6         185.7651  -123.1930   -73.3001 H6            1 RES     
    4842 H6         183.1158  -123.4070   -71.7211 H6            1 RES     
    4843 H6         184.7346  -123.1284   -70.9836 H6            1 RES     
    4844 H6         183.8899  -125.4801   -70.8282 H6            1 RES     
    4845 H6         183.8179  -125.5817   -72.6246 H6            1 RES     
    4846 H6         186.3520  -125.2778   -72.6940 H6            1 RES     
    4847 H6         186.3426  -125.0863   -70.9025 H6            1 RES     
    4848 H6         185.4905  -127.4212   -70.6400 H6            1 RES     
    4849 H6         187.0743  -127.3287   -71.4897 H6            1 RES     
    4850 H6         184.3439  -127.7606   -72.8670 H6            1 RES     
    4851 H6         185.9459  -127.6061   -73.6976 H6            1 RES     
    4852 H6         185.6218  -128.9857   -72.5810 H6            1 RES     
    4853 H6         179.4997  -122.0390   -75.1897 H6            1 RES     
    4854 H6         179.0548  -122.0847   -76.8632 H6            1 RES     
    4855 H6         178.9346  -119.8451   -74.9891 H6            1 RES     
    4856 H6         180.1930  -119.3962   -76.1945 H6            1 RES     
    4857 H6         177.2829  -120.3456   -76.8184 H6            1 RES     
    4858 H6         178.6034  -120.0734   -77.9453 H6            1 RES     
    4859 H6         178.7834  -117.7260   -77.4513 H6            1 RES     
    4860 H6         177.2866  -118.2643   -78.2390 H6            1 RES     
    4861 H6         176.0319  -118.1586   -76.1880 H6            1 RES     
    4862 H6         177.4667  -117.5735   -75.2506 H6            1 RES     
    4863 H6         177.6978  -115.6006   -76.7207 H6            1 RES     
    4864 H6         176.3691  -116.1534   -77.7961 H6            1 RES     
    4865 H6         175.6892  -114.3231   -76.2865 H6            1 RES     
    4866 H6         176.0082  -115.3545   -74.8421 H6            1 RES     
    4867 H6         174.2160  -116.9624   -75.6671 H6            1 RES     
    4868 H6         173.5772  -115.2927   -75.4965 H6            1 RES     
    4869 H6         173.9883  -115.9266   -77.1320 H6            1 RES     
    4870 C0         182.2507  -121.4144   -80.5058 C0            1 RES     
    4871 C0         183.6424  -120.6550   -80.3252 C0            1 RES     
    4872 C0         184.0881  -120.2022   -81.7565 C0            1 RES     
    4873 C0         185.5349  -119.6808   -81.8701 C0            1 RES     
    4874 C0         185.9219  -119.2250   -83.2881 C0            1 RES     
    4875 C0         185.8398  -120.3038   -84.3828 C0            1 RES     
    4876 C0         186.6226  -121.5943   -84.0886 C0            1 RES     
    4877 C0         188.1215  -121.3567   -83.8339 C0            1 RES     
    4878 C0         188.8884  -122.6554   -83.5365 C0            1 RES     
    4879 C0         188.9510  -123.6044   -84.7467 C0            1 RES     
    4880 C0         189.8216  -124.8448   -84.4924 C0            1 RES     
    4881 C0         189.2536  -125.7701   -83.4161 C0            1 RES     
    4882 C0         183.9384  -119.5271   -79.2495 C0            1 RES     
    4883 C0         183.2658  -118.1268   -79.3185 C0            1 RES     
    4884 C0         182.1800  -117.9444   -78.2429 C0            1 RES     
    4885 C0         181.4149  -116.6314   -78.2632 C0            1 RES     
    4886 C0         182.1596  -115.3909   -77.7902 C0            1 RES     
    4887 C0         181.1334  -114.2406   -77.7379 C0            1 RES     
    4888 C0         181.6677  -112.9404   -77.1344 C0            1 RES     
    4889 C0         181.9705  -113.0746   -75.6413 C0            1 RES     
    4890 H6         181.7287  -120.9939   -81.3966 H6            1 RES     
    4891 H6         182.5368  -122.4179   -80.8947 H6            1 RES     
    4892 H6         184.3408  -121.4608   -80.0011 H6            1 RES     
    4893 H6         183.3974  -119.4101   -82.1181 H6            1 RES     
    4894 H6         183.9897  -121.0769   -82.4348 H6            1 RES     
    4895 H6         186.2365  -120.4638   -81.5135 H6            1 RES     
    4896 H6         185.6687  -118.7776   -81.2437 H6            1 RES     
    4897 H6         186.9608  -118.8338   -83.2454 H6            1 RES     
    4898 H6         185.2710  -118.3749   -83.5894 H6            1 RES     
    4899 H6         186.2150  -119.8571   -85.3295 H6            1 RES     
    4900 H6         184.7759  -120.5766   -84.5495 H6            1 RES     
    4901 H6         186.1786  -122.1056   -83.2079 H6            1 RES     
    4902 H6         186.4871  -122.2560   -84.9683 H6            1 RES     
    4903 H6         188.2354  -120.7067   -82.9413 H6            1 RES     
    4904 H6         188.5826  -120.8386   -84.7025 H6            1 RES     
    4905 H6         189.9288  -122.3761   -83.2612 H6            1 RES     
    4906 H6         188.4199  -123.1562   -82.6628 H6            1 RES     
    4907 H6         187.9357  -123.9391   -85.0432 H6            1 RES     
    4908 H6         189.3989  -123.0479   -85.5988 H6            1 RES     
    4909 H6         190.8505  -124.5318   -84.2111 H6            1 RES     
    4910 H6         189.8826  -125.4217   -85.4403 H6            1 RES     
    4911 H6         189.2172  -125.2665   -82.4291 H6            1 RES     
    4912 H6         188.2327  -126.1053   -83.6976 H6            1 RES     
    4913 H6         189.9058  -126.6635   -83.3198 H6            1 RES     
    4914 H6         185.0231  -119.3341   -79.3395 H6            1 RES     
    4915 H6         183.9571  -119.9085   -78.2112 H6            1 RES     
    4916 H6         184.0375  -117.3681   -79.0612 H6            1 RES     
    4917 H6         182.9129  -117.9064   -80.3463 H6            1 RES     
    4918 H6         182.6091  -118.1166   -77.2297 H6            1 RES     
    4919 H6         181.3876  -118.6684   -78.3965 H6            1 RES     
    4920 H6         180.9631  -116.4725   -79.2664 H6            1 RES     
    4921 H6         180.6104  -116.7634   -77.5211 H6            1 RES     
    4922 H6         182.5607  -115.6025   -76.7765 H6            1 RES     
    4923 H6         182.9995  -115.1422   -78.4718 H6            1 RES     
    4924 H6         180.7889  -114.0391   -78.7762 H6            1 RES     
    4925 H6         180.2425  -114.5444   -77.1413 H6            1 RES     
    4926 H6         180.8706  -112.1727   -77.2450 H6            1 RES     
    4927 H6         182.5654  -112.6025   -77.6892 H6            1 RES     
    4928 H6         182.7891  -113.7983   -75.4571 H6            1 RES     
    4929 H6         182.2825  -112.0882   -75.2409 H6            1 RES     
    4930 H6         181.0615  -113.4050   -75.0922 H6            1 RES     
    4931 C0         181.1784  -134.6688   -78.9893 C0            1 RES     
    4932 C1         180.4515  -133.3368   -79.2775 C1            1 RES     
    4933 C1         179.3356  -133.5094   -80.0326 C1            1 RES     
    4934 S2         178.5746  -132.0753   -80.4407 S2            1 RES     
    4935 C1         179.7541  -131.1453   -79.6439 C1            1 RES     
    4936 C1         180.7266  -131.9742   -79.0741 C1            1 RES     
    4937 C1         179.2080  -134.8791   -80.3496 C1            1 RES     
    4938 C1         180.2776  -135.5555   -79.8503 C1            1 RES     
    4939 C1         180.2923  -136.8874   -80.2467 C1            1 RES     
    4940 C1         179.1662  -137.1817   -81.0337 C1            1 RES     
    4941 S2         178.1761  -135.8197   -81.2534 S2            1 RES     
    4942 H3         181.5968  -131.5707   -78.5921 H3            1 RES     
    4943 H3         181.0691  -137.5969   -79.9877 H3            1 RES     
    4944 N4         177.5363  -140.4081   -82.0261 N4            1 RES     
    4945 C1         177.7996  -139.2502   -81.3522 C1            1 RES     
    4946 C1         178.8945  -138.4449   -81.7107 C1            1 RES     
    4947 C1         179.6866  -138.8513   -82.7860 C1            1 RES     
    4948 N4         180.7361  -138.1386   -83.2698 N4            1 RES     
    4949 S2         181.2276  -139.0628   -84.5489 S2            1 RES     
    4950 N4         180.1798  -140.3436   -84.5366 N4            1 RES     
    4951 C1         179.3806  -140.0477   -83.4819 C1            1 RES     
    4952 C1         178.3008  -140.8262   -83.0737 C1            1 RES     
    4953 H5         177.1582  -138.9577   -80.5253 H5            1 RES     
    4954 C0         181.1920  -135.2439   -77.5292 C0            1 RES     
    4955 C0         180.0347  -135.8889   -76.6768 C0            1 RES     
    4956 C0         180.6613  -136.1395   -75.2601 C0            1 RES     
    4957 C0         179.7723  -136.8376   -74.2235 C0            1 RES     
    4958 C0         180.4743  -136.9851   -72.8530 C0            1 RES     
    4959 C0         181.7516  -137.8536   -72.8414 C0            1 RES     
    4960 C0         181.5721  -139.2773   -73.3973 C0            1 RES     
    4961 C0         180.4888  -140.0817   -72.6569 C0            1 RES     
    4962 C0         180.2727  -141.4817   -73.2492 C0            1 RES     
    4963 C0         181.4815  -142.4133   -73.0579 C0            1 RES     
    4964 C0         181.2122  -143.8439   -73.5513 C0            1 RES     
    4965 C0         181.0018  -143.9300   -75.0634 C0            1 RES     
    4966 C0         178.6487  -135.1705   -76.5869 C0            1 RES     
    4967 C0         178.5559  -133.7769   -75.8927 C0            1 RES     
    4968 C0         178.0155  -132.7566   -76.8991 C0            1 RES     
    4969 C0         178.1434  -131.2750   -76.5565 C0            1 RES     
    4970 C0         177.1105  -130.7117   -75.5914 C0            1 RES     
    4971 C0         177.3951  -129.2041   -75.4257 C0            1 RES     
    4972 C0         176.3281  -128.4452   -74.6335 C0            1 RES     
    4973 C0         174.9988  -128.3579   -75.3864 C0            1 RES     
    4974 H6         181.5674  -134.4709   -76.9086 H6            1 RES     
    4975 H6         181.9610  -136.0486   -77.5602 H6            1 RES     
    4976 H6         179.8094  -136.8746   -77.1419 H6            1 RES     
    4977 H6         180.9748  -135.1672   -74.8209 H6            1 RES     
    4978 H6         181.5758  -136.7551   -75.3987 H6            1 RES     
    4979 H6         179.4467  -137.8267   -74.6049 H6            1 RES     
    4980 H6         178.8698  -136.2199   -74.0416 H6            1 RES     
    4981 H6         179.7438  -137.4128   -72.1356 H6            1 RES     
    4982 H6         180.7409  -135.9763   -72.4668 H6            1 RES     
    4983 H6         182.1148  -137.9184   -71.7914 H6            1 RES     
    4984 H6         182.5511  -137.3515   -73.4271 H6            1 RES     
    4985 H6         181.3160  -139.2194   -74.4762 H6            1 RES     
    4986 H6         182.5516  -139.7915   -73.3091 H6            1 RES     
    4987 H6         179.5195  -139.5517   -72.7551 H6            1 RES     
    4988 H6         180.7370  -140.1591   -71.5757 H6            1 RES     
    4989 H6         179.4010  -141.9349   -72.7288 H6            1 RES     
    4990 H6         180.0191  -141.3751   -74.3248 H6            1 RES     
    4991 H6         182.3759  -142.0170   -73.5817 H6            1 RES     
    4992 H6         181.7069  -142.4675   -71.9705 H6            1 RES     
    4993 H6         180.3259  -144.2631   -73.0267 H6            1 RES     
    4994 H6         182.0937  -144.4697   -73.2936 H6            1 RES     
    4995 H6         180.1009  -143.3663   -75.3793 H6            1 RES     
    4996 H6         181.8913  -143.5325   -75.5970 H6            1 RES     
    4997 H6         180.8581  -144.9916   -75.3544 H6            1 RES     
    4998 H6         177.9554  -135.8459   -76.0413 H6            1 RES     
    4999 H6         178.2048  -135.1437   -77.6051 H6            1 RES     
    5000 H6         177.8583  -133.8130   -75.0260 H6            1 RES     
    5001 H6         179.5541  -133.4695   -75.5202 H6            1 RES     
    5002 H6         176.9907  -133.0077   -77.2450 H6            1 RES     
    5003 H6         178.6720  -132.8668   -77.7359 H6            1 RES     
    5004 H6         179.1589  -131.0757   -76.2056 H6            1 RES     
    5005 H6         178.0125  -130.7200   -77.5132 H6            1 RES     
    5006 H6         176.1111  -130.8781   -76.0464 H6            1 RES     
    5007 H6         177.1538  -131.2225   -74.6063 H6            1 RES     
    5008 H6         178.3740  -129.0945   -74.9061 H6            1 RES     
    5009 H6         177.4874  -128.7135   -76.4214 H6            1 RES     
    5010 H6         176.6936  -127.4053   -74.4851 H6            1 RES     
    5011 H6         176.1831  -128.9125   -73.6368 H6            1 RES     
    5012 H6         174.5507  -129.3597   -75.5377 H6            1 RES     
    5013 H6         174.2834  -127.7422   -74.8044 H6            1 RES     
    5014 H6         175.1516  -127.8750   -76.3774 H6            1 RES     
    5015 C0         182.6356  -134.4761   -79.5681 C0            1 RES     
    5016 C0         183.9754  -134.3924   -78.7055 C0            1 RES     
    5017 C0         185.0352  -133.6697   -79.6037 C0            1 RES     
    5018 C0         186.4869  -133.7099   -79.0850 C0            1 RES     
    5019 C0         187.4898  -132.9677   -79.9859 C0            1 RES     
    5020 C0         187.6070  -133.4911   -81.4286 C0            1 RES     
    5021 C0         187.9045  -134.9944   -81.5564 C0            1 RES     
    5022 C0         189.1953  -135.4263   -80.8385 C0            1 RES     
    5023 C0         189.4755  -136.9320   -80.9714 C0            1 RES     
    5024 C0         189.7960  -137.3563   -82.4158 C0            1 RES     
    5025 C0         190.1985  -138.8347   -82.5318 C0            1 RES     
    5026 C0         189.0642  -139.7981   -82.1821 C0            1 RES     
    5027 C0         184.0674  -133.8984   -77.2007 C0            1 RES     
    5028 C0         183.8044  -132.4185   -76.8025 C0            1 RES     
    5029 C0         182.4534  -132.2351   -76.0880 C0            1 RES     
    5030 C0         182.0693  -130.8135   -75.7120 C0            1 RES     
    5031 C0         182.8233  -130.1782   -74.5523 C0            1 RES     
    5032 C0         182.1415  -128.8266   -74.2565 C0            1 RES     
    5033 C0         182.6698  -128.1079   -73.0137 C0            1 RES     
    5034 C0         182.3245  -128.8510   -71.7223 C0            1 RES     
    5035 H6         182.6123  -133.6136   -80.2742 H6            1 RES     
    5036 H6         182.8213  -135.3133   -80.2785 H6            1 RES     
    5037 H6         184.2932  -135.4564   -78.6106 H6            1 RES     
    5038 H6         184.7360  -132.6073   -79.7347 H6            1 RES     
    5039 H6         185.0197  -134.1547   -80.6034 H6            1 RES     
    5040 H6         186.7998  -134.7667   -78.9513 H6            1 RES     
    5041 H6         186.5607  -133.1953   -78.1075 H6            1 RES     
    5042 H6         188.4872  -133.0252   -79.5000 H6            1 RES     
    5043 H6         187.2153  -131.8908   -80.0289 H6            1 RES     
    5044 H6         188.4124  -132.9153   -81.9350 H6            1 RES     
    5045 H6         186.6622  -133.2793   -81.9732 H6            1 RES     
    5046 H6         187.0493  -135.5780   -81.1535 H6            1 RES     
    5047 H6         187.9821  -135.2122   -82.6411 H6            1 RES     
    5048 H6         189.0907  -135.2151   -79.7538 H6            1 RES     
    5049 H6         190.0625  -134.8474   -81.2235 H6            1 RES     
    5050 H6         190.3581  -137.1670   -80.3374 H6            1 RES     
    5051 H6         188.6035  -137.4950   -80.5761 H6            1 RES     
    5052 H6         188.9317  -137.1710   -83.0864 H6            1 RES     
    5053 H6         190.6535  -136.7450   -82.7729 H6            1 RES     
    5054 H6         191.0761  -139.0385   -81.8805 H6            1 RES     
    5055 H6         190.4972  -139.0276   -83.5848 H6            1 RES     
    5056 H6         188.7560  -139.6909   -81.1225 H6            1 RES     
    5057 H6         188.1890  -139.6162   -82.8415 H6            1 RES     
    5058 H6         189.4107  -140.8421   -82.3331 H6            1 RES     
    5059 H6         185.1139  -134.0979   -76.9056 H6            1 RES     
    5060 H6         183.5923  -134.5937   -76.4834 H6            1 RES     
    5061 H6         184.5604  -132.1348   -76.0375 H6            1 RES     
    5062 H6         183.9415  -131.7434   -77.6714 H6            1 RES     
    5063 H6         182.4008  -132.8914   -75.1898 H6            1 RES     
    5064 H6         181.6459  -132.5170   -76.7544 H6            1 RES     
    5065 H6         182.0948  -130.1638   -76.6138 H6            1 RES     
    5066 H6         181.0306  -130.8894   -75.3503 H6            1 RES     
    5067 H6         182.7368  -130.8585   -73.6788 H6            1 RES     
    5068 H6         183.8956  -130.0355   -74.8004 H6            1 RES     
    5069 H6         182.2860  -128.1674   -75.1407 H6            1 RES     
    5070 H6         181.0448  -128.9690   -74.1192 H6            1 RES     
    5071 H6         182.1717  -127.1145   -72.9698 H6            1 RES     
    5072 H6         183.7637  -127.9531   -73.0982 H6            1 RES     
    5073 H6         182.8227  -129.8398   -71.6780 H6            1 RES     
    5074 H6         182.6645  -128.2517   -70.8530 H6            1 RES     
    5075 H6         181.2244  -128.9933   -71.6423 H6            1 RES     
    5076 C0         178.1467  -146.0574   -84.5533 C0            1 RES     
    5077 C1         177.9060  -144.5407   -84.3871 C1            1 RES     
    5078 C1         177.1679  -144.0199   -85.4016 C1            1 RES     
    5079 S2         176.9664  -142.3612   -85.3002 S2            1 RES     
    5080 C1         177.9127  -142.2654   -83.8909 C1            1 RES     
    5081 C1         178.3737  -143.5348   -83.5251 C1            1 RES     
    5082 C1         176.8749  -145.0468   -86.3249 C1            1 RES     
    5083 C1         177.4840  -146.1957   -85.9247 C1            1 RES     
    5084 C1         177.3576  -147.2145   -86.8613 C1            1 RES     
    5085 C1         176.5958  -146.7841   -87.9607 C1            1 RES     
    5086 S2         176.0999  -145.1689   -87.7915 S2            1 RES     
    5087 H3         179.0508  -143.6717   -82.7034 H3            1 RES     
    5088 H3         177.7922  -148.2016   -86.7578 H3            1 RES     
    5089 N4         174.8154  -148.6309   -90.6938 N4            1 RES     
    5090 C1         175.0426  -147.9602   -89.5265 C1            1 RES     
    5091 C1         176.3391  -147.5417   -89.1805 C1            1 RES     
    5092 C1         177.3781  -147.8112   -90.0730 C1            1 RES     
    5093 N4         178.6627  -147.4126   -89.8877 N4            1 RES     
    5094 S2         179.3986  -147.9488   -91.2671 S2            1 RES     
    5095 N4         178.1747  -148.6756   -92.1110 N4            1 RES     
    5096 C1         177.1129  -148.4919   -91.2878 C1            1 RES     
    5097 C1         175.8163  -148.9100   -91.5753 C1            1 RES     
    5098 H5         174.2104  -147.7584   -88.8577 H5            1 RES     
    5099 C0         177.4586  -147.0640   -83.5655 C0            1 RES     
    5100 C0         175.9481  -147.4919   -83.4344 C0            1 RES     
    5101 C0         175.8961  -148.4277   -82.1759 C0            1 RES     
    5102 C0         174.5410  -149.0636   -81.8414 C0            1 RES     
    5103 C0         174.5973  -149.9220   -80.5558 C0            1 RES     
    5104 C0         175.5405  -151.1442   -80.6037 C0            1 RES     
    5105 C0         175.2830  -152.1161   -81.7687 C0            1 RES     
    5106 C0         173.8473  -152.6701   -81.7858 C0            1 RES     
    5107 C0         173.5766  -153.5955   -82.9807 C0            1 RES     
    5108 C0         174.3741  -154.9093   -82.9220 C0            1 RES     
    5109 C0         174.0104  -155.8758   -84.0604 C0            1 RES     
    5110 C0         174.3969  -155.3503   -85.4434 C0            1 RES     
    5111 C0         174.8346  -146.3947   -83.3963 C0            1 RES     
    5112 C0         174.7882  -145.3968   -82.1985 C0            1 RES     
    5113 C0         174.9267  -143.9694   -82.7365 C0            1 RES     
    5114 C0         175.2346  -142.8549   -81.7406 C0            1 RES     
    5115 C0         174.0587  -142.3236   -80.9342 C0            1 RES     
    5116 C0         174.5818  -141.1828   -80.0362 C0            1 RES     
    5117 C0         173.4865  -140.4102   -79.2976 C0            1 RES     
    5118 C0         172.6146  -139.5875   -80.2485 C0            1 RES     
    5119 H6         177.7215  -146.7484   -82.5883 H6            1 RES     
    5120 H6         177.9790  -148.0301   -83.7542 H6            1 RES     
    5121 H6         175.7110  -148.1000   -84.3359 H6            1 RES     
    5122 H6         176.2190  -147.8546   -81.2794 H6            1 RES     
    5123 H6         176.6304  -149.2467   -82.3326 H6            1 RES     
    5124 H6         174.1808  -149.6668   -82.6994 H6            1 RES     
    5125 H6         173.8008  -148.2622   -81.6436 H6            1 RES     
    5126 H6         173.5689  -150.2718   -80.3294 H6            1 RES     
    5127 H6         174.9072  -149.2817   -79.7003 H6            1 RES     
    5128 H6         175.4384  -151.6963   -79.6428 H6            1 RES     
    5129 H6         176.5953  -150.8009   -80.6660 H6            1 RES     
    5130 H6         175.4906  -151.5992   -82.7293 H6            1 RES     
    5131 H6         176.0089  -152.9496   -81.6692 H6            1 RES     
    5132 H6         173.1379  -151.8233   -81.8840 H6            1 RES     
    5133 H6         173.6274  -153.2017   -80.8341 H6            1 RES     
    5134 H6         172.4937  -153.8476   -82.9709 H6            1 RES     
    5135 H6         173.7958  -153.0386   -83.9159 H6            1 RES     
    5136 H6         175.4659  -154.7135   -82.9545 H6            1 RES     
    5137 H6         174.1367  -155.4147   -81.9606 H6            1 RES     
    5138 H6         172.9205  -156.0947   -84.0355 H6            1 RES     
    5139 H6         174.5576  -156.8285   -83.8926 H6            1 RES     
    5140 H6         173.8414  -154.4241   -85.6939 H6            1 RES     
    5141 H6         175.4883  -155.1484   -85.4850 H6            1 RES     
    5142 H6         174.1476  -156.1142   -86.2094 H6            1 RES     
    5143 H6         173.8520  -146.9127   -83.4187 H6            1 RES     
    5144 H6         174.8438  -145.8568   -84.3685 H6            1 RES     
    5145 H6         173.8174  -145.4721   -81.6591 H6            1 RES     
    5146 H6         175.6013  -145.6258   -81.4800 H6            1 RES     
    5147 H6         174.0919  -143.6914   -83.4138 H6            1 RES     
    5148 H6         175.8166  -144.0158   -83.3273 H6            1 RES     
    5149 H6         176.0477  -143.1761   -81.0850 H6            1 RES     
    5150 H6         175.6162  -141.9967   -82.3393 H6            1 RES     
    5151 H6         173.3082  -141.9439   -81.6595 H6            1 RES     
    5152 H6         173.5976  -143.1213   -80.3143 H6            1 RES     
    5153 H6         175.2761  -141.6264   -79.2869 H6            1 RES     
    5154 H6         175.1635  -140.4485   -80.6387 H6            1 RES     
    5155 H6         173.9850  -139.6971   -78.6047 H6            1 RES     
    5156 H6         172.8625  -141.1054   -78.6975 H6            1 RES     
    5157 H6         172.0520  -140.2364   -80.9483 H6            1 RES     
    5158 H6         171.8840  -138.9947   -79.6616 H6            1 RES     
    5159 H6         173.2469  -138.8836   -80.8347 H6            1 RES     
    5160 C0         179.7174  -146.2246   -84.5773 C0            1 RES     
    5161 C0         180.5936  -146.9414   -83.4527 C0            1 RES     
    5162 C0         182.0523  -146.3948   -83.6132 C0            1 RES     
    5163 C0         183.1358  -147.1408   -82.8085 C0            1 RES     
    5164 C0         184.5490  -146.5555   -82.9775 C0            1 RES     
    5165 C0         185.1038  -146.5518   -84.4132 C0            1 RES     
    5166 C0         185.0864  -147.9152   -85.1241 C0            1 RES     
    5167 C0         185.8614  -149.0094   -84.3690 C0            1 RES     
    5168 C0         185.8301  -150.3668   -85.0900 C0            1 RES     
    5169 C0         186.5890  -150.3513   -86.4290 C0            1 RES     
    5170 C0         186.6663  -151.7358   -87.0911 C0            1 RES     
    5171 C0         185.3030  -152.2734   -87.5265 C0            1 RES     
    5172 C0         180.1948  -147.0687   -81.9224 C0            1 RES     
    5173 C0         180.1316  -145.8316   -80.9825 C0            1 RES     
    5174 C0         178.6858  -145.4252   -80.6449 C0            1 RES     
    5175 C0         178.5103  -144.1865   -79.7821 C0            1 RES     
    5176 C0         178.8691  -144.3149   -78.3084 C0            1 RES     
    5177 C0         178.4439  -142.9999   -77.6237 C0            1 RES     
    5178 C0         178.5871  -143.0022   -76.1006 C0            1 RES     
    5179 C0         177.6074  -143.9641   -75.4267 C0            1 RES     
    5180 H6         180.1648  -145.2269   -84.7950 H6            1 RES     
    5181 H6         179.9765  -146.7702   -85.5128 H6            1 RES     
    5182 H6         180.6044  -148.0098   -83.7698 H6            1 RES     
    5183 H6         182.0720  -145.3222   -83.3227 H6            1 RES     
    5184 H6         182.3232  -146.4625   -84.6888 H6            1 RES     
    5185 H6         183.1285  -148.2145   -83.0905 H6            1 RES     
    5186 H6         182.9321  -147.0613   -81.7231 H6            1 RES     
    5187 H6         185.2360  -147.1386   -82.3276 H6            1 RES     
    5188 H6         184.5594  -145.5098   -82.5989 H6            1 RES     
    5189 H6         186.1490  -146.1744   -84.3730 H6            1 RES     
    5190 H6         184.5210  -145.8344   -85.0294 H6            1 RES     
    5191 H6         184.0356  -148.2453   -85.2691 H6            1 RES     
    5192 H6         185.5330  -147.7568   -86.1269 H6            1 RES     
    5193 H6         185.3892  -149.1637   -83.3764 H6            1 RES     
    5194 H6         186.9149  -148.6939   -84.2077 H6            1 RES     
    5195 H6         186.3172  -151.1124   -84.4244 H6            1 RES     
    5196 H6         184.7718  -150.6704   -85.2366 H6            1 RES     
    5197 H6         186.1216  -149.6428   -87.1434 H6            1 RES     
    5198 H6         187.6300  -150.0140   -86.2318 H6            1 RES     
    5199 H6         187.1490  -152.4586   -86.3980 H6            1 RES     
    5200 H6         187.3033  -151.6478   -87.9975 H6            1 RES     
    5201 H6         184.6358  -152.4343   -86.6557 H6            1 RES     
    5202 H6         184.8207  -151.5677   -88.2359 H6            1 RES     
    5203 H6         185.4403  -153.2500   -88.0366 H6            1 RES     
    5204 H6         180.9690  -147.7265   -81.4866 H6            1 RES     
    5205 H6         179.3351  -147.7433   -81.7503 H6            1 RES     
    5206 H6         180.5691  -146.1280   -80.0037 H6            1 RES     
    5207 H6         180.7444  -144.9982   -81.3817 H6            1 RES     
    5208 H6         178.1410  -146.2835   -80.1901 H6            1 RES     
    5209 H6         178.1639  -145.1426   -81.5523 H6            1 RES     
    5210 H6         179.0308  -143.3228   -80.2501 H6            1 RES     
    5211 H6         177.4243  -143.9966   -79.7806 H6            1 RES     
    5212 H6         178.2984  -145.1729   -77.8943 H6            1 RES     
    5213 H6         179.9554  -144.4987   -78.1739 H6            1 RES     
    5214 H6         179.0658  -142.1776   -78.0411 H6            1 RES     
    5215 H6         177.3794  -142.7685   -77.8587 H6            1 RES     
    5216 H6         178.3453  -141.9768   -75.7444 H6            1 RES     
    5217 H6         179.6311  -143.2401   -75.8156 H6            1 RES     
    5218 H6         177.8157  -145.0161   -75.7056 H6            1 RES     
    5219 H6         177.7026  -143.8716   -74.3253 H6            1 RES     
    5220 H6         176.5624  -143.7117   -75.7115 H6            1 RES     
    5221 C0         175.1003  -152.8609   -95.2436 C0            1 RES     
    5222 C1         175.1562  -151.5200   -94.4789 C1            1 RES     
    5223 C1         175.0107  -150.4490   -95.3016 C1            1 RES     
    5224 S2         175.1586  -148.9772   -94.5177 S2            1 RES     
    5225 C1         175.4717  -149.7285   -93.0249 C1            1 RES     
    5226 C1         175.4584  -151.1205   -93.1664 C1            1 RES     
    5227 C1         174.8840  -150.9095   -96.6300 C1            1 RES     
    5228 C1         175.0162  -152.2634   -96.6489 C1            1 RES     
    5229 C1         175.0451  -152.7734   -97.9414 C1            1 RES     
    5230 C1         174.8918  -151.7423   -98.8835 C1            1 RES     
    5231 S2         174.7406  -150.2238   -98.1386 S2            1 RES     
    5232 H3         175.7101  -151.7708   -92.3503 H3            1 RES     
    5233 H3         175.1737  -153.8210   -98.1856 H3            1 RES     
    5234 N4         173.9656  -151.7405  -102.5157 N4            1 RES     
    5235 C1         173.8590  -151.6479  -101.1577 C1            1 RES     
    5236 C1         174.9733  -151.8810  -100.3333 C1            1 RES     
    5237 C1         176.1914  -152.1858  -100.9434 C1            1 RES     
    5238 N4         177.3538  -152.3763  -100.2681 N4            1 RES     
    5239 S2         178.4332  -152.6321  -101.4933 S2            1 RES     
    5240 N4         177.5106  -152.5198  -102.8625 N4            1 RES     
    5241 C1         176.2805  -152.2567  -102.3563 C1            1 RES     
    5242 C1         175.1432  -152.0435  -103.1307 C1            1 RES     
    5243 H5         172.8983  -151.3999  -100.7146 H5            1 RES     
    5244 C0         173.8754  -153.8199   -95.0376 C0            1 RES     
    5245 C0         172.3807  -153.6815   -95.5157 C0            1 RES     
    5246 C0         171.6331  -154.9060   -94.8800 C0            1 RES     
    5247 C0         170.1513  -155.0745   -95.2381 C0            1 RES     
    5248 C0         169.5069  -156.2811   -94.5159 C0            1 RES     
    5249 C0         170.0970  -157.6659   -94.8622 C0            1 RES     
    5250 C0         170.1089  -158.0083   -96.3625 C0            1 RES     
    5251 C0         168.7111  -157.9550   -97.0043 C0            1 RES     
    5252 C0         168.7333  -158.2421   -98.5125 C0            1 RES     
    5253 C0         169.1312  -159.6895   -98.8477 C0            1 RES     
    5254 C0         169.0390  -159.9976  -100.3506 C0            1 RES     
    5255 C0         170.0431  -159.2070  -101.1903 C0            1 RES     
    5256 C0         171.6148  -152.3389   -95.2790 C0            1 RES     
    5257 C0         171.3245  -151.8740   -93.8187 C0            1 RES     
    5258 C0         171.9754  -150.5057   -93.5952 C0            1 RES     
    5259 C0         172.1065  -150.0001   -92.1613 C0            1 RES     
    5260 C0         170.8580  -149.3891   -91.5421 C0            1 RES     
    5261 C0         171.2254  -148.9058   -90.1234 C0            1 RES     
    5262 C0         170.1290  -148.0925   -89.4316 C0            1 RES     
    5263 C0         169.9060  -146.7336   -90.0987 C0            1 RES     
    5264 H6         173.7966  -153.9814   -93.9929 H6            1 RES     
    5265 H6         174.2000  -154.7799   -95.4990 H6            1 RES     
    5266 H6         172.3880  -153.8083   -96.6214 H6            1 RES     
    5267 H6         171.6966  -154.8391   -93.7719 H6            1 RES     
    5268 H6         172.1687  -155.8283   -95.1915 H6            1 RES     
    5269 H6         170.0327  -155.1670   -96.3368 H6            1 RES     
    5270 H6         169.5904  -154.1794   -94.9012 H6            1 RES     
    5271 H6         168.4225  -156.2848   -94.7511 H6            1 RES     
    5272 H6         169.5897  -156.1374   -93.4158 H6            1 RES     
    5273 H6         169.5065  -158.4377   -94.3198 H6            1 RES     
    5274 H6         171.1391  -157.7343   -94.4833 H6            1 RES     
    5275 H6         170.7856  -157.3057   -96.8930 H6            1 RES     
    5276 H6         170.5332  -159.0288   -96.4643 H6            1 RES     
    5277 H6         168.3040  -156.9296   -96.8911 H6            1 RES     
    5278 H6         168.0236  -158.6627   -96.4914 H6            1 RES     
    5279 H6         167.7069  -158.0665   -98.9023 H6            1 RES     
    5280 H6         169.4193  -157.5180   -99.0001 H6            1 RES     
    5281 H6         170.1620  -159.9091   -98.5003 H6            1 RES     
    5282 H6         168.4300  -160.3715   -98.3191 H6            1 RES     
    5283 H6         168.0077  -159.7959  -100.7143 H6            1 RES     
    5284 H6         169.2506  -161.0790  -100.4951 H6            1 RES     
    5285 H6         169.8507  -158.1168  -101.1305 H6            1 RES     
    5286 H6         171.0785  -159.4180  -100.8481 H6            1 RES     
    5287 H6         169.9519  -159.5107  -102.2542 H6            1 RES     
    5288 H6         170.6316  -152.4187   -95.7902 H6            1 RES     
    5289 H6         172.1237  -151.5415   -95.8618 H6            1 RES     
    5290 H6         170.2295  -151.7698   -93.6477 H6            1 RES     
    5291 H6         171.7176  -152.6181   -93.0966 H6            1 RES     
    5292 H6         171.5575  -149.7255   -94.2657 H6            1 RES     
    5293 H6         172.9915  -150.6675   -93.8863 H6            1 RES     
    5294 H6         172.5039  -150.8021   -91.5345 H6            1 RES     
    5295 H6         172.8722  -149.1915   -92.1832 H6            1 RES     
    5296 H6         170.5568  -148.5354   -92.1854 H6            1 RES     
    5297 H6         170.0264  -150.1237   -91.4956 H6            1 RES     
    5298 H6         171.4529  -149.8024   -89.5033 H6            1 RES     
    5299 H6         172.1438  -148.2763   -90.1521 H6            1 RES     
    5300 H6         170.4601  -147.8987   -88.3876 H6            1 RES     
    5301 H6         169.1824  -148.6719   -89.3983 H6            1 RES     
    5302 H6         169.5345  -146.8460   -91.1363 H6            1 RES     
    5303 H6         169.1548  -146.1567   -89.5220 H6            1 RES     
    5304 H6         170.8564  -146.1545   -90.1140 H6            1 RES     
    5305 C0         176.4749  -153.5725   -94.9276 C0            1 RES     
    5306 C0         176.6570  -154.9015   -94.0635 C0            1 RES     
    5307 C0         178.1433  -154.9082   -93.5703 C0            1 RES     
    5308 C0         178.6295  -156.2278   -92.9377 C0            1 RES     
    5309 C0         180.0871  -156.1816   -92.4462 C0            1 RES     
    5310 C0         181.1465  -155.8852   -93.5226 C0            1 RES     
    5311 C0         181.1079  -156.8108   -94.7500 C0            1 RES     
    5312 C0         181.2610  -158.3011   -94.3981 C0            1 RES     
    5313 C0         181.2152  -159.2129   -95.6349 C0            1 RES     
    5314 C0         182.4215  -159.0146   -96.5701 C0            1 RES     
    5315 C0         182.4436  -160.0099   -97.7406 C0            1 RES     
    5316 C0         181.2783  -159.8243   -98.7125 C0            1 RES     
    5317 C0         175.6723  -155.3945   -92.9214 C0            1 RES     
    5318 C0         175.5211  -154.6277   -91.5771 C0            1 RES     
    5319 C0         174.1881  -153.8636   -91.4849 C0            1 RES     
    5320 C0         173.9673  -153.0276   -90.2350 C0            1 RES     
    5321 C0         173.6809  -153.7796   -88.9429 C0            1 RES     
    5322 C0         173.3240  -152.7245   -87.8759 C0            1 RES     
    5323 C0         172.8537  -153.3056   -86.5412 C0            1 RES     
    5324 C0         171.5016  -154.0107   -86.6590 C0            1 RES     
    5325 H6         177.1807  -152.7992   -94.5444 H6            1 RES     
    5326 H6         176.9523  -153.8153   -95.9039 H6            1 RES     
    5327 H6         176.5543  -155.7188   -94.8143 H6            1 RES     
    5328 H6         178.2845  -154.0893   -92.8323 H6            1 RES     
    5329 H6         178.7922  -154.6941   -94.4466 H6            1 RES     
    5330 H6         178.4958  -157.0552   -93.6657 H6            1 RES     
    5331 H6         178.0394  -156.4598   -92.0300 H6            1 RES     
    5332 H6         180.3162  -157.1616   -91.9758 H6            1 RES     
    5333 H6         180.1795  -155.4130   -91.6476 H6            1 RES     
    5334 H6         182.1475  -155.9560   -93.0434 H6            1 RES     
    5335 H6         181.0270  -154.8389   -93.8762 H6            1 RES     
    5336 H6         180.1535  -156.6608   -95.2986 H6            1 RES     
    5337 H6         181.9352  -156.4909   -95.4158 H6            1 RES     
    5338 H6         180.4158  -158.6046   -93.7457 H6            1 RES     
    5339 H6         182.2081  -158.4702   -93.8415 H6            1 RES     
    5340 H6         181.2237  -160.2655   -95.2771 H6            1 RES     
    5341 H6         180.2607  -159.0367   -96.1749 H6            1 RES     
    5342 H6         182.4416  -157.9842   -96.9811 H6            1 RES     
    5343 H6         183.3482  -159.1727   -95.9763 H6            1 RES     
    5344 H6         182.4424  -161.0508   -97.3501 H6            1 RES     
    5345 H6         183.3874  -159.8539   -98.3062 H6            1 RES     
    5346 H6         180.3054  -160.0199   -98.2182 H6            1 RES     
    5347 H6         181.2824  -158.7927   -99.1244 H6            1 RES     
    5348 H6         181.3846  -160.5419   -99.5531 H6            1 RES     
    5349 H6         176.0467  -156.3970   -92.6444 H6            1 RES     
    5350 H6         174.6878  -155.7218   -93.3054 H6            1 RES     
    5351 H6         175.4621  -155.3824   -90.7622 H6            1 RES     
    5352 H6         176.4095  -153.9943   -91.3796 H6            1 RES     
    5353 H6         173.3331  -154.5627   -91.6284 H6            1 RES     
    5354 H6         174.1408  -153.1145   -92.2673 H6            1 RES     
    5355 H6         174.8069  -152.3104   -90.1066 H6            1 RES     
    5356 H6         173.0393  -152.4662   -90.4328 H6            1 RES     
    5357 H6         172.8188  -154.4548   -89.1279 H6            1 RES     
    5358 H6         174.5572  -154.3827   -88.6265 H6            1 RES     
    5359 H6         174.2252  -152.0977   -87.6965 H6            1 RES     
    5360 H6         172.5172  -152.0534   -88.2509 H6            1 RES     
    5361 H6         172.7252  -152.4543   -85.8371 H6            1 RES     
    5362 H6         173.6211  -153.9921   -86.1320 H6            1 RES     
    5363 H6         171.5639  -154.8993   -87.3180 H6            1 RES     
    5364 H6         171.1749  -154.3464   -85.6535 H6            1 RES     
    5365 H6         170.7363  -153.3113   -87.0617 H6            1 RES     
    5366 C0         175.0680  -153.9258  -108.2326 C0            1 RES     
    5367 C1         175.1149  -153.0523  -106.9595 C1            1 RES     
    5368 C1         175.5452  -151.7893  -107.2144 C1            1 RES     
    5369 S2         175.6956  -150.8432  -105.8416 S2            1 RES     
    5370 C1         175.2229  -152.1231  -104.8269 C1            1 RES     
    5371 C1         174.9582  -153.2717  -105.5808 C1            1 RES     
    5372 C1         175.8512  -151.6814  -108.5882 C1            1 RES     
    5373 C1         175.6767  -152.8929  -109.1822 C1            1 RES     
    5374 C1         176.0966  -152.8971  -110.5069 C1            1 RES     
    5375 C1         176.5579  -151.6245  -110.8838 C1            1 RES     
    5376 S2         176.4670  -150.5150  -109.6016 S2            1 RES     
    5377 H3         174.7186  -154.2079  -105.1134 H3            1 RES     
    5378 H3         176.0752  -153.7649  -111.1554 H3            1 RES     
    5379 N4         177.1566  -150.0278  -114.2217 N4            1 RES     
    5380 C1         176.5491  -150.3783  -113.0503 C1            1 RES     
    5381 C1         177.1688  -151.2729  -112.1608 C1            1 RES     
    5382 C1         178.4281  -151.7716  -112.4992 C1            1 RES     
    5383 N4         179.1586  -152.5954  -111.7048 N4            1 RES     
    5384 S2         180.5463  -152.7883  -112.5817 S2            1 RES     
    5385 N4         180.2848  -151.8798  -113.9399 N4            1 RES     
    5386 C1         179.0463  -151.3769  -113.7121 C1            1 RES     
    5387 C1         178.3821  -150.5083  -114.5741 C1            1 RES     
    5388 H5         175.5726  -149.9653  -112.8126 H5            1 RES     
    5389 C0         173.6811  -154.3767  -108.8123 C0            1 RES     
    5390 C0         172.5651  -153.5442  -109.5493 C0            1 RES     
    5391 C0         171.3770  -154.5479  -109.7576 C0            1 RES     
    5392 C0         170.1573  -154.0267  -110.5278 C0            1 RES     
    5393 C0         169.0313  -155.0827  -110.6272 C0            1 RES     
    5394 C0         169.3872  -156.3754  -111.3941 C0            1 RES     
    5395 C0         169.9106  -156.1569  -112.8246 C0            1 RES     
    5396 C0         168.9265  -155.3768  -113.7143 C0            1 RES     
    5397 C0         169.4744  -155.1114  -115.1238 C0            1 RES     
    5398 C0         169.6404  -156.3917  -115.9599 C0            1 RES     
    5399 C0         170.0796  -156.1044  -117.4045 C0            1 RES     
    5400 C0         171.4806  -155.4990  -117.4991 C0            1 RES     
    5401 C0         172.0860  -152.1857  -108.9410 C0            1 RES     
    5402 C0         171.3568  -152.1826  -107.5623 C0            1 RES     
    5403 C0         172.1533  -151.3163  -106.5819 C0            1 RES     
    5404 C0         171.8198  -151.4234  -105.0966 C0            1 RES     
    5405 C0         170.5976  -150.6523  -104.6200 C0            1 RES     
    5406 C0         170.4760  -150.8599  -103.0957 C0            1 RES     
    5407 C0         169.4059  -149.9948  -102.4258 C0            1 RES     
    5408 C0         169.7697  -148.5086  -102.4380 C0            1 RES     
    5409 H6         173.1651  -154.8485  -108.0156 H6            1 RES     
    5410 H6         173.9393  -155.1653  -109.5547 H6            1 RES     
    5411 H6         172.9774  -153.2741  -110.5471 H6            1 RES     
    5412 H6         171.0136  -154.8965  -108.7662 H6            1 RES     
    5413 H6         171.7730  -155.4331  -110.2998 H6            1 RES     
    5414 H6         170.4621  -153.6833  -111.5372 H6            1 RES     
    5415 H6         169.7227  -153.1645  -109.9828 H6            1 RES     
    5416 H6         168.1547  -154.6073  -111.1138 H6            1 RES     
    5417 H6         168.7054  -155.3693  -109.6027 H6            1 RES     
    5418 H6         168.4762  -157.0133  -111.4358 H6            1 RES     
    5419 H6         170.1537  -156.9473  -110.8286 H6            1 RES     
    5420 H6         170.8786  -155.6144  -112.7814 H6            1 RES     
    5421 H6         170.1033  -157.1586  -113.2618 H6            1 RES     
    5422 H6         168.7457  -154.3810  -113.2606 H6            1 RES     
    5423 H6         167.9546  -155.9136  -113.7776 H6            1 RES     
    5424 H6         168.7500  -154.4490  -115.6459 H6            1 RES     
    5425 H6         170.4386  -154.5687  -115.0319 H6            1 RES     
    5426 H6         170.3757  -157.0791  -115.4928 H6            1 RES     
    5427 H6         168.6560  -156.9067  -116.0019 H6            1 RES     
    5428 H6         169.3464  -155.4266  -117.8938 H6            1 RES     
    5429 H6         170.0856  -157.0661  -117.9614 H6            1 RES     
    5430 H6         171.5270  -154.5074  -117.0054 H6            1 RES     
    5431 H6         172.2239  -156.1789  -117.0312 H6            1 RES     
    5432 H6         171.7494  -155.3600  -118.5672 H6            1 RES     
    5433 H6         171.3912  -151.7176  -109.6708 H6            1 RES     
    5434 H6         172.9456  -151.4817  -108.9436 H6            1 RES     
    5435 H6         170.3352  -151.7506  -107.6567 H6            1 RES     
    5436 H6         171.2596  -153.2191  -107.1802 H6            1 RES     
    5437 H6         172.2162  -150.2574  -106.9100 H6            1 RES     
    5438 H6         173.1387  -151.7277  -106.6367 H6            1 RES     
    5439 H6         171.7509  -152.4785  -104.8209 H6            1 RES     
    5440 H6         172.6911  -150.9978  -104.5486 H6            1 RES     
    5441 H6         170.7702  -149.5820  -104.8611 H6            1 RES     
    5442 H6         169.6742  -150.9983  -105.1308 H6            1 RES     
    5443 H6         170.2371  -151.9322  -102.9131 H6            1 RES     
    5444 H6         171.4466  -150.6426  -102.5944 H6            1 RES     
    5445 H6         169.3348  -150.3097  -101.3614 H6            1 RES     
    5446 H6         168.4195  -150.1601  -102.9079 H6            1 RES     
    5447 H6         169.8203  -148.1109  -103.4707 H6            1 RES     
    5448 H6         169.0006  -147.9345  -101.8826 H6            1 RES     
    5449 H6         170.7524  -148.3513  -101.9397 H6            1 RES     
    5450 C0         176.0134  -155.1533  -107.9246 C0            1 RES     
    5451 C0         175.5425  -156.6669  -107.7416 C0            1 RES     
    5452 C0         176.6744  -157.3877  -106.9344 C0            1 RES     
    5453 C0         176.5678  -158.9245  -106.8645 C0            1 RES     
    5454 C0         177.6864  -159.5885  -106.0423 C0            1 RES     
    5455 C0         179.1202  -159.3485  -106.5478 C0            1 RES     
    5456 C0         179.3623  -159.7095  -108.0228 C0            1 RES     
    5457 C0         179.0308  -161.1746  -108.3569 C0            1 RES     
    5458 C0         179.2731  -161.5179  -109.8357 C0            1 RES     
    5459 C0         180.7609  -161.4651  -110.2266 C0            1 RES     
    5460 C0         181.0194  -161.9284  -111.6688 C0            1 RES     
    5461 C0         180.4015  -161.0051  -112.7189 C0            1 RES     
    5462 C0         174.1061  -157.1269  -107.2495 C0            1 RES     
    5463 C0         173.6136  -156.8739  -105.7964 C0            1 RES     
    5464 C0         172.5566  -155.7574  -105.7219 C0            1 RES     
    5465 C0         172.0543  -155.3864  -104.3363 C0            1 RES     
    5466 C0         171.1250  -156.3778  -103.6503 C0            1 RES     
    5467 C0         170.6215  -155.7046  -102.3571 C0            1 RES     
    5468 C0         169.5492  -156.4957  -101.6058 C0            1 RES     
    5469 C0         168.2322  -156.5687  -102.3799 C0            1 RES     
    5470 H6         176.6645  -154.8764  -107.0630 H6            1 RES     
    5471 H6         176.7689  -155.2004  -108.7413 H6            1 RES     
    5472 H6         175.5644  -157.0756  -108.7782 H6            1 RES     
    5473 H6         176.6923  -156.9872  -105.8977 H6            1 RES     
    5474 H6         177.6450  -157.1375  -107.4141 H6            1 RES     
    5475 H6         176.5508  -159.3386  -107.8945 H6            1 RES     
    5476 H6         175.6334  -159.2226  -106.3507 H6            1 RES     
    5477 H6         177.4893  -160.6817  -106.0247 H6            1 RES     
    5478 H6         177.6259  -159.2345  -104.9896 H6            1 RES     
    5479 H6         179.8101  -159.9420  -105.9088 H6            1 RES     
    5480 H6         179.3841  -158.2785  -106.4072 H6            1 RES     
    5481 H6         178.7588  -159.0406  -108.6729 H6            1 RES     
    5482 H6         180.4329  -159.5060  -108.2286 H6            1 RES     
    5483 H6         177.9530  -161.3527  -108.1599 H6            1 RES     
    5484 H6         179.6203  -161.8602  -107.7105 H6            1 RES     
    5485 H6         178.9071  -162.5540  -110.0047 H6            1 RES     
    5486 H6         178.6719  -160.8293  -110.4666 H6            1 RES     
    5487 H6         181.1684  -160.4403  -110.1055 H6            1 RES     
    5488 H6         181.3202  -162.1466  -109.5489 H6            1 RES     
    5489 H6         180.6345  -162.9621  -111.8072 H6            1 RES     
    5490 H6         182.1185  -161.9438  -111.8326 H6            1 RES     
    5491 H6         179.2957  -160.9885  -112.6413 H6            1 RES     
    5492 H6         180.7954  -159.9730  -112.6022 H6            1 RES     
    5493 H6         180.6673  -161.3732  -113.7322 H6            1 RES     
    5494 H6         174.1095  -158.2259  -107.3687 H6            1 RES     
    5495 H6         173.3054  -156.9162  -107.9831 H6            1 RES     
    5496 H6         173.0739  -157.7860  -105.4588 H6            1 RES     
    5497 H6         174.4695  -156.7205  -105.1084 H6            1 RES     
    5498 H6         171.6947  -155.9984  -106.3848 H6            1 RES     
    5499 H6         172.9874  -154.8224  -106.0623 H6            1 RES     
    5500 H6         172.9124  -155.1189  -103.6821 H6            1 RES     
    5501 H6         171.4278  -154.4931  -104.4943 H6            1 RES     
    5502 H6         170.2784  -156.5814  -104.3396 H6            1 RES     
    5503 H6         171.6495  -157.3294  -103.4235 H6            1 RES     
    5504 H6         171.4945  -155.5553  -101.6842 H6            1 RES     
    5505 H6         170.1971  -154.6996  -102.5848 H6            1 RES     
    5506 H6         169.3469  -155.9568  -100.6542 H6            1 RES     
    5507 H6         169.9217  -157.5114  -101.3663 H6            1 RES     
    5508 H6         168.3495  -157.1314  -103.3273 H6            1 RES     
    5509 H6         167.4716  -157.0868  -101.7604 H6            1 RES     
    5510 H6         167.8620  -155.5450  -102.6075 H6            1 RES     
    5511 C0         179.8998  -150.3428  -119.7940 C0            1 RES     
    5512 C1         179.6357  -150.0456  -118.3014 C1            1 RES     
    5513 C1         180.3996  -149.0241  -117.8344 C1            1 RES     
    5514 S2         180.2049  -148.7366  -116.1968 S2            1 RES     
    5515 C1         179.1012  -150.0198  -116.0350 C1            1 RES     
    5516 C1         178.9062  -150.6544  -117.2666 C1            1 RES     
    5517 C1         181.2358  -148.5679  -118.8763 C1            1 RES     
    5518 C1         181.0446  -149.3451  -119.9764 C1            1 RES     
    5519 C1         181.9384  -149.0447  -120.9973 C1            1 RES     
    5520 C1         182.7799  -147.9840  -120.6217 C1            1 RES     
    5521 S2         182.4416  -147.4356  -119.0507 S2            1 RES     
    5522 H3         178.3015  -151.5370  -117.3547 H3            1 RES     
    5523 H3         181.9814  -149.5622  -121.9481 H3            1 RES     
    5524 N4         184.9780  -145.6699  -122.5874 N4            1 RES     
    5525 C1         183.8983  -146.1551  -121.9069 C1            1 RES     
    5526 C1         183.9043  -147.4626  -121.3908 C1            1 RES     
    5527 C1         185.0508  -148.2377  -121.5745 C1            1 RES     
    5528 N4         185.2087  -149.4917  -121.0784 N4            1 RES     
    5529 S2         186.7489  -149.8634  -121.5491 S2            1 RES     
    5530 N4         187.2496  -148.5133  -122.3643 N4            1 RES     
    5531 C1         186.1661  -147.7039  -122.2676 C1            1 RES     
    5532 C1         186.1037  -146.4121  -122.7836 C1            1 RES     
    5533 H5         183.0248  -145.5228  -121.7736 H5            1 RES     
    5534 C0         178.7893  -150.0238  -120.8559 C0            1 RES     
    5535 C0         178.2666  -148.6409  -121.4003 C0            1 RES     
    5536 C0         177.0653  -149.0006  -122.3436 C0            1 RES     
    5537 C0         176.3941  -147.8374  -123.0843 C0            1 RES     
    5538 C0         175.1940  -148.3027  -123.9422 C0            1 RES     
    5539 C0         175.5261  -149.2846  -125.0873 C0            1 RES     
    5540 C0         176.6032  -148.7929  -126.0704 C0            1 RES     
    5541 C0         176.2465  -147.4509  -126.7339 C0            1 RES     
    5542 C0         177.3475  -146.9351  -127.6716 C0            1 RES     
    5543 C0         177.5402  -147.8127  -128.9199 C0            1 RES     
    5544 C0         178.5627  -147.2259  -129.9060 C0            1 RES     
    5545 C0         179.9847  -147.1836  -129.3452 C0            1 RES     
    5546 C0         177.9012  -147.5021  -120.3929 C0            1 RES     
    5547 C0         176.7099  -147.7091  -119.4076 C0            1 RES     
    5548 C0         177.2282  -147.5916  -117.9711 C0            1 RES     
    5549 C0         176.3239  -148.0754  -116.8411 C0            1 RES     
    5550 C0         175.2167  -147.1263  -116.4066 C0            1 RES     
    5551 C0         174.4641  -147.7881  -115.2332 C0            1 RES     
    5552 C0         173.4376  -146.8804  -114.5516 C0            1 RES     
    5553 C0         174.0964  -145.7256  -113.7942 C0            1 RES     
    5554 H6         177.9114  -150.5178  -120.5257 H6            1 RES     
    5555 H6         179.1363  -150.5429  -121.7778 H6            1 RES     
    5556 H6         179.0860  -148.2137  -122.0204 H6            1 RES     
    5557 H6         176.2747  -149.5115  -121.7516 H6            1 RES     
    5558 H6         177.4354  -149.7230  -123.1024 H6            1 RES     
    5559 H6         177.1384  -147.3033  -123.7093 H6            1 RES     
    5560 H6         175.9833  -147.1217  -122.3438 H6            1 RES     
    5561 H6         174.7076  -147.4026  -124.3718 H6            1 RES     
    5562 H6         174.4376  -148.7850  -123.2841 H6            1 RES     
    5563 H6         174.5880  -149.4874  -125.6504 H6            1 RES     
    5564 H6         175.8619  -150.2549  -124.6629 H6            1 RES     
    5565 H6         177.5705  -148.6939  -125.5342 H6            1 RES     
    5566 H6         176.7248  -149.5777  -126.8456 H6            1 RES     
    5567 H6         176.1278  -146.6813  -125.9442 H6            1 RES     
    5568 H6         175.2848  -147.5367  -127.2858 H6            1 RES     
    5569 H6         177.0524  -145.9169  -128.0069 H6            1 RES     
    5570 H6         178.2924  -146.8512  -127.0947 H6            1 RES     
    5571 H6         177.8610  -148.8375  -128.6398 H6            1 RES     
    5572 H6         176.5637  -147.8825  -129.4469 H6            1 RES     
    5573 H6         178.2503  -146.2027  -130.2088 H6            1 RES     
    5574 H6         178.5735  -147.8664  -130.8142 H6            1 RES     
    5575 H6         180.0521  -146.5147  -128.4636 H6            1 RES     
    5576 H6         180.3140  -148.2050  -129.0590 H6            1 RES     
    5577 H6         180.6745  -146.7927  -130.1222 H6            1 RES     
    5578 H6         177.6710  -146.5910  -120.9855 H6            1 RES     
    5579 H6         178.8255  -147.2081  -119.8511 H6            1 RES     
    5580 H6         175.9307  -146.9290  -119.5606 H6            1 RES     
    5581 H6         176.2436  -148.7009  -119.5764 H6            1 RES     
    5582 H6         177.6478  -146.5864  -117.7553 H6            1 RES     
    5583 H6         178.0383  -148.2890  -117.9454 H6            1 RES     
    5584 H6         175.9205  -149.0569  -117.1016 H6            1 RES     
    5585 H6         176.9810  -148.2164  -115.9529 H6            1 RES     
    5586 H6         175.7026  -146.1816  -116.0826 H6            1 RES     
    5587 H6         174.5162  -146.9103  -117.2408 H6            1 RES     
    5588 H6         173.9416  -148.6900  -115.6254 H6            1 RES     
    5589 H6         175.1820  -148.1294  -114.4530 H6            1 RES     
    5590 H6         172.8867  -147.4944  -113.8054 H6            1 RES     
    5591 H6         172.7095  -146.4951  -115.2961 H6            1 RES     
    5592 H6         174.6349  -145.0435  -114.4812 H6            1 RES     
    5593 H6         173.3191  -145.1399  -113.2628 H6            1 RES     
    5594 H6         174.8130  -146.1220  -113.0405 H6            1 RES     
    5595 C0         180.3510  -151.8561  -119.8388 C0            1 RES     
    5596 C0         179.5234  -153.0543  -120.4911 C0            1 RES     
    5597 C0         180.0574  -154.3708  -119.8323 C0            1 RES     
    5598 C0         179.5944  -155.6834  -120.4960 C0            1 RES     
    5599 C0         180.1233  -156.9511  -119.8021 C0            1 RES     
    5600 C0         181.6548  -157.0943  -119.7482 C0            1 RES     
    5601 C0         182.3697  -156.9848  -121.1052 C0            1 RES     
    5602 C0         181.8802  -158.0135  -122.1398 C0            1 RES     
    5603 C0         182.6008  -157.8875  -123.4919 C0            1 RES     
    5604 C0         184.0940  -158.2519  -123.4109 C0            1 RES     
    5605 C0         184.7880  -158.2481  -124.7819 C0            1 RES     
    5606 C0         184.8531  -156.8610  -125.4214 C0            1 RES     
    5607 C0         177.9461  -153.0955  -120.6566 C0            1 RES     
    5608 C0         176.9924  -153.1990  -119.4329 C0            1 RES     
    5609 C0         176.2669  -151.8730  -119.1415 C0            1 RES     
    5610 C0         175.3570  -151.8477  -117.9244 C0            1 RES     
    5611 C0         174.0385  -152.6008  -118.0321 C0            1 RES     
    5612 C0         173.2308  -152.2819  -116.7574 C0            1 RES     
    5613 C0         171.8035  -152.8322  -116.7562 C0            1 RES     
    5614 C0         170.9153  -152.1452  -117.7946 C0            1 RES     
    5615 H6         180.6555  -152.1533  -118.8083 H6            1 RES     
    5616 H6         181.3355  -151.8911  -120.3580 H6            1 RES     
    5617 H6         179.8591  -153.0570  -121.5539 H6            1 RES     
    5618 H6         179.7554  -154.3898  -118.7628 H6            1 RES     
    5619 H6         181.1676  -154.3443  -119.8733 H6            1 RES     
    5620 H6         179.8916  -155.6787  -121.5656 H6            1 RES     
    5621 H6         178.4926  -155.7762  -120.4380 H6            1 RES     
    5622 H6         179.6982  -157.8294  -120.3334 H6            1 RES     
    5623 H6         179.7347  -156.9871  -118.7606 H6            1 RES     
    5624 H6         181.8884  -158.0807  -119.2910 H6            1 RES     
    5625 H6         182.0722  -156.3153  -119.0750 H6            1 RES     
    5626 H6         182.2342  -155.9611  -121.5151 H6            1 RES     
    5627 H6         183.4513  -157.1301  -120.9076 H6            1 RES     
    5628 H6         180.8013  -157.8406  -122.3353 H6            1 RES     
    5629 H6         182.0010  -159.0452  -121.7444 H6            1 RES     
    5630 H6         182.1108  -158.5900  -124.2008 H6            1 RES     
    5631 H6         182.4642  -156.8543  -123.8759 H6            1 RES     
    5632 H6         184.6373  -157.5577  -122.7372 H6            1 RES     
    5633 H6         184.1764  -159.2797  -122.9949 H6            1 RES     
    5634 H6         184.2697  -158.9522  -125.4685 H6            1 RES     
    5635 H6         185.8301  -158.6074  -124.6403 H6            1 RES     
    5636 H6         183.8391  -156.4685  -125.6379 H6            1 RES     
    5637 H6         185.3876  -156.1541  -124.7517 H6            1 RES     
    5638 H6         185.4063  -156.9261  -126.3819 H6            1 RES     
    5639 H6         177.7524  -154.0049  -121.2546 H6            1 RES     
    5640 H6         177.5658  -152.3665  -121.3967 H6            1 RES     
    5641 H6         176.1760  -153.9059  -119.6993 H6            1 RES     
    5642 H6         177.5205  -153.6179  -118.5525 H6            1 RES     
    5643 H6         175.7042  -151.5363  -120.0417 H6            1 RES     
    5644 H6         176.9922  -151.1055  -118.8956 H6            1 RES     
    5645 H6         175.9256  -152.1571  -117.0207 H6            1 RES     
    5646 H6         175.0576  -150.7918  -117.8194 H6            1 RES     
    5647 H6         173.5082  -152.2282  -118.9338 H6            1 RES     
    5648 H6         174.2070  -153.6933  -118.1317 H6            1 RES     
    5649 H6         173.7792  -152.7054  -115.8873 H6            1 RES     
    5650 H6         173.1639  -151.1795  -116.6081 H6            1 RES     
    5651 H6         171.3688  -152.6216  -115.7544 H6            1 RES     
    5652 H6         171.8170  -153.9289  -116.9138 H6            1 RES     
    5653 H6         171.2671  -152.3466  -118.8258 H6            1 RES     
    5654 H6         169.8785  -152.5282  -117.7005 H6            1 RES     
    5655 H6         170.9009  -151.0465  -117.6225 H6            1 RES     
    5656 C0         189.5435  -145.0204  -126.7596 C0            1 RES     
    5657 C1         188.7879  -145.1829  -125.4223 C1            1 RES     
    5658 C1         189.5129  -144.7418  -124.3617 C1            1 RES     
    5659 S2         188.7602  -144.9884  -122.8869 S2            1 RES     
    5660 C1         187.4272  -145.7485  -123.6191 C1            1 RES     
    5661 C1         187.5958  -145.7994  -125.0071 C1            1 RES     
    5662 C1         190.7693  -144.2939  -124.8240 C1            1 RES     
    5663 C1         190.8581  -144.5149  -126.1634 C1            1 RES     
    5664 C1         192.1231  -144.2298  -126.6632 C1            1 RES     
    5665 C1         192.9620  -143.7517  -125.6424 C1            1 RES     
    5666 S2         192.1650  -143.6972  -124.1440 S2            1 RES     
    5667 H3         186.8950  -146.3098  -125.6401 H3            1 RES     
    5668 H3         192.4200  -144.3639  -127.6965 H3            1 RES     
    5669 N4         196.2083  -141.8783  -125.6942 N4            1 RES     
    5670 C1         194.8699  -142.1372  -125.6170 C1            1 RES     
    5671 C1         194.3831  -143.4473  -125.7671 C1            1 RES     
    5672 C1         195.3069  -144.4734  -125.9735 C1            1 RES     
    5673 N4         194.9754  -145.7860  -126.0766 N4            1 RES     
    5674 S2         196.4527  -146.5086  -126.2419 S2            1 RES     
    5675 N4         197.5188  -145.2439  -126.1946 N4            1 RES     
    5676 C1         196.6928  -144.1812  -126.0302 C1            1 RES     
    5677 C1         197.1258  -142.8640  -125.9019 C1            1 RES     
    5678 H5         194.1779  -141.3171  -125.4465 H5            1 RES     
    5679 C0         189.0395  -143.9708  -127.8118 C0            1 RES     
    5680 C0         189.0928  -142.3964  -127.7873 C0            1 RES     
    5681 C0         188.3108  -141.9409  -129.0693 C0            1 RES     
    5682 C0         188.2600  -140.4341  -129.3503 C0            1 RES     
    5683 C0         187.4221  -140.0997  -130.6069 C0            1 RES     
    5684 C0         187.9505  -140.6737  -131.9401 C0            1 RES     
    5685 C0         189.4066  -140.3036  -132.2730 C0            1 RES     
    5686 C0         189.6459  -138.7842  -132.3250 C0            1 RES     
    5687 C0         191.1110  -138.4178  -132.6020 C0            1 RES     
    5688 C0         191.5783  -138.8150  -134.0125 C0            1 RES     
    5689 C0         193.0081  -138.3417  -134.3192 C0            1 RES     
    5690 C0         194.0669  -139.0200  -133.4490 C0            1 RES     
    5691 C0         188.6236  -141.6272  -126.5093 C0            1 RES     
    5692 C0         187.1277  -141.7101  -126.0757 C0            1 RES     
    5693 C0         187.0528  -142.2952  -124.6621 C0            1 RES     
    5694 C0         185.6950  -142.7726  -124.1551 C0            1 RES     
    5695 C0         184.7463  -141.6973  -123.6459 C0            1 RES     
    5696 C0         183.4674  -142.3990  -123.1426 C0            1 RES     
    5697 C0         182.4847  -141.4745  -122.4203 C0            1 RES     
    5698 C0         183.0315  -140.9802  -121.0794 C0            1 RES     
    5699 H6         188.0168  -144.1901  -127.9842 H6            1 RES     
    5700 H6         189.5959  -144.2276  -128.7414 H6            1 RES     
    5701 H6         190.1623  -142.1132  -127.9076 H6            1 RES     
    5702 H6         187.2596  -142.2973  -129.0032 H6            1 RES     
    5703 H6         188.7789  -142.4382  -129.9457 H6            1 RES     
    5704 H6         189.2880  -140.0293  -129.4463 H6            1 RES     
    5705 H6         187.7613  -139.9214  -128.5032 H6            1 RES     
    5706 H6         187.3560  -138.9955  -130.6935 H6            1 RES     
    5707 H6         186.3818  -140.4668  -130.4627 H6            1 RES     
    5708 H6         187.2889  -140.3105  -132.7580 H6            1 RES     
    5709 H6         187.8687  -141.7816  -131.9293 H6            1 RES     
    5710 H6         190.0817  -140.7579  -131.5174 H6            1 RES     
    5711 H6         189.6455  -140.7581  -133.2569 H6            1 RES     
    5712 H6         189.4005  -138.3490  -131.3349 H6            1 RES     
    5713 H6         188.9849  -138.3153  -133.0865 H6            1 RES     
    5714 H6         191.2047  -137.3142  -132.5046 H6            1 RES     
    5715 H6         191.7468  -138.8910  -131.8244 H6            1 RES     
    5716 H6         191.5278  -139.9146  -134.1532 H6            1 RES     
    5717 H6         190.8980  -138.3353  -134.7495 H6            1 RES     
    5718 H6         193.0748  -137.2386  -134.1964 H6            1 RES     
    5719 H6         193.2322  -138.5849  -135.3803 H6            1 RES     
    5720 H6         193.9293  -138.7717  -132.3773 H6            1 RES     
    5721 H6         194.0223  -140.1220  -133.5808 H6            1 RES     
    5722 H6         195.0742  -138.6663  -133.7535 H6            1 RES     
    5723 H6         188.8525  -140.5508  -126.6625 H6            1 RES     
    5724 H6         189.3014  -141.8992  -125.6720 H6            1 RES     
    5725 H6         186.6650  -140.6979  -126.0576 H6            1 RES     
    5726 H6         186.5579  -142.3378  -126.7906 H6            1 RES     
    5727 H6         187.5653  -141.6553  -123.9133 H6            1 RES     
    5728 H6         187.6114  -143.2034  -124.7432 H6            1 RES     
    5729 H6         185.2196  -143.3827  -124.9270 H6            1 RES     
    5730 H6         185.9018  -143.4423  -123.2895 H6            1 RES     
    5731 H6         185.2622  -141.1713  -122.8148 H6            1 RES     
    5732 H6         184.4961  -140.9656  -124.4429 H6            1 RES     
    5733 H6         182.9550  -142.8511  -124.0220 H6            1 RES     
    5734 H6         183.7266  -143.2266  -122.4437 H6            1 RES     
    5735 H6         181.5641  -142.0611  -122.2066 H6            1 RES     
    5736 H6         182.2122  -140.6175  -123.0715 H6            1 RES     
    5737 H6         183.9329  -140.3507  -121.2151 H6            1 RES     
    5738 H6         182.2588  -140.3732  -120.5654 H6            1 RES     
    5739 H6         183.2877  -141.8457  -120.4283 H6            1 RES     
    5740 C0         189.6286  -146.4774  -127.3641 C0            1 RES     
    5741 C0         188.8803  -146.9837  -128.6793 C0            1 RES     
    5742 C0         188.8068  -148.5444  -128.5732 C0            1 RES     
    5743 C0         188.3631  -149.2793  -129.8543 C0            1 RES     
    5744 C0         188.2821  -150.8080  -129.6976 C0            1 RES     
    5745 C0         189.5965  -151.5114  -129.3146 C0            1 RES     
    5746 C0         190.7913  -151.2096  -130.2343 C0            1 RES     
    5747 C0         190.5324  -151.5611  -131.7099 C0            1 RES     
    5748 C0         191.7341  -151.2488  -132.6163 C0            1 RES     
    5749 C0         192.9547  -152.1386  -132.3204 C0            1 RES     
    5750 C0         194.1130  -151.9155  -133.3052 C0            1 RES     
    5751 C0         194.7293  -150.5200  -133.2057 C0            1 RES     
    5752 C0         187.5280  -146.3843  -129.2529 C0            1 RES     
    5753 C0         186.1735  -146.5474  -128.5068 C0            1 RES     
    5754 C0         185.7053  -145.2369  -127.8489 C0            1 RES     
    5755 C0         184.4211  -145.3024  -127.0388 C0            1 RES     
    5756 C0         183.1194  -145.4328  -127.8172 C0            1 RES     
    5757 C0         181.9688  -145.3022  -126.7983 C0            1 RES     
    5758 C0         180.5722  -145.2550  -127.4208 C0            1 RES     
    5759 C0         180.3390  -143.9771  -128.2280 C0            1 RES     
    5760 H6         189.4302  -147.2020  -126.5404 H6            1 RES     
    5761 H6         190.7034  -146.6888  -127.5642 H6            1 RES     
    5762 H6         189.5964  -146.7416  -129.4983 H6            1 RES     
    5763 H6         188.1134  -148.8200  -127.7495 H6            1 RES     
    5764 H6         189.8199  -148.9141  -128.3050 H6            1 RES     
    5765 H6         189.0491  -149.0142  -130.6859 H6            1 RES     
    5766 H6         187.3362  -148.9759  -130.1359 H6            1 RES     
    5767 H6         187.9165  -151.2273  -130.6593 H6            1 RES     
    5768 H6         187.5185  -151.0569  -128.9282 H6            1 RES     
    5769 H6         189.4071  -152.6072  -129.3100 H6            1 RES     
    5770 H6         189.8775  -151.2242  -128.2790 H6            1 RES     
    5771 H6         191.0580  -150.1339  -130.1560 H6            1 RES     
    5772 H6         191.6472  -151.7996  -129.8478 H6            1 RES     
    5773 H6         189.6842  -150.9489  -132.0813 H6            1 RES     
    5774 H6         190.2566  -152.6334  -131.8079 H6            1 RES     
    5775 H6         191.4192  -151.4310  -133.6669 H6            1 RES     
    5776 H6         191.9918  -150.1734  -132.5120 H6            1 RES     
    5777 H6         193.3291  -151.9709  -131.2896 H6            1 RES     
    5778 H6         192.6373  -153.2005  -132.4092 H6            1 RES     
    5779 H6         193.7637  -152.0965  -134.3449 H6            1 RES     
    5780 H6         194.9081  -152.6567  -133.0736 H6            1 RES     
    5781 H6         193.9960  -149.7346  -133.4786 H6            1 RES     
    5782 H6         195.1003  -150.3368  -132.1747 H6            1 RES     
    5783 H6         195.5857  -150.4469  -133.9086 H6            1 RES     
    5784 H6         187.3882  -146.8922  -130.2248 H6            1 RES     
    5785 H6         187.6404  -145.3594  -129.6536 H6            1 RES     
    5786 H6         185.3926  -146.7668  -129.2679 H6            1 RES     
    5787 H6         186.2067  -147.4071  -127.8074 H6            1 RES     
    5788 H6         185.6307  -144.4286  -128.6115 H6            1 RES     
    5789 H6         186.4263  -144.9246  -127.1018 H6            1 RES     
    5790 H6         184.5055  -146.0906  -126.2593 H6            1 RES     
    5791 H6         184.3465  -144.3170  -126.5501 H6            1 RES     
    5792 H6         183.0823  -144.6048  -128.5563 H6            1 RES     
    5793 H6         183.0669  -146.4039  -128.3521 H6            1 RES     
    5794 H6         182.0232  -146.1698  -126.1044 H6            1 RES     
    5795 H6         182.0947  -144.3770  -126.1899 H6            1 RES     
    5796 H6         179.8378  -145.2602  -126.5856 H6            1 RES     
    5797 H6         180.4031  -146.1529  -128.0478 H6            1 RES     
    5798 H6         181.0130  -143.9234  -129.1058 H6            1 RES     
    5799 H6         179.2916  -143.9607  -128.5931 H6            1 RES     
    5800 H6         180.5020  -143.0822  -127.5880 H6            1 RES     
    5801 C0         202.0650  -141.5472  -127.7588 C0            1 RES     
    5802 C1         200.8298  -141.8732  -126.8908 C1            1 RES     
    5803 C1         201.1585  -142.1245  -125.5970 C1            1 RES     
    5804 S2         199.8533  -142.5717  -124.6489 S2            1 RES     
    5805 C1         198.7821  -142.4867  -125.9666 C1            1 RES     
    5806 C1         199.4660  -142.1126  -127.1285 C1            1 RES     
    5807 C1         202.5607  -142.0380  -125.4587 C1            1 RES     
    5808 C1         203.1167  -141.7983  -126.6771 C1            1 RES     
    5809 C1         204.5052  -141.8427  -126.6422 C1            1 RES     
    5810 C1         204.9595  -142.0900  -125.3358 C1            1 RES     
    5811 S2         203.6722  -142.2690  -124.2430 S2            1 RES     
    5812 H3         198.9757  -142.0779  -128.0828 H3            1 RES     
    5813 H3         205.1460  -141.7100  -127.5057 H3            1 RES     
    5814 N4         208.2929  -141.6430  -123.6807 N4            1 RES     
    5815 C1         207.0105  -141.4031  -124.0831 C1            1 RES     
    5816 C1         206.3445  -142.3045  -124.9315 C1            1 RES     
    5817 C1         207.0229  -143.4580  -125.3293 C1            1 RES     
    5818 N4         206.4766  -144.4348  -126.0980 N4            1 RES     
    5819 S2         207.7001  -145.5431  -126.1782 S2            1 RES     
    5820 N4         208.9135  -144.8575  -125.2860 N4            1 RES     
    5821 C1         208.3471  -143.6937  -124.8818 C1            1 RES     
    5822 C1         208.9751  -142.7589  -124.0630 C1            1 RES     
    5823 H5         206.5075  -140.5000  -123.7483 H5            1 RES     
    5824 C0         202.2605  -140.0921  -128.3130 C0            1 RES     
    5825 C0         202.6473  -138.7601  -127.5659 C0            1 RES     
    5826 C0         202.5531  -137.6369  -128.6576 C0            1 RES     
    5827 C0         202.9519  -136.2194  -128.2288 C0            1 RES     
    5828 C0         202.7710  -135.1891  -129.3684 C0            1 RES     
    5829 C0         203.6386  -135.4176  -130.6258 C0            1 RES     
    5830 C0         205.1511  -135.5163  -130.3601 C0            1 RES     
    5831 C0         205.7218  -134.2734  -129.6542 C0            1 RES     
    5832 C0         207.2196  -134.3979  -129.3402 C0            1 RES     
    5833 C0         208.1023  -134.4245  -130.5995 C0            1 RES     
    5834 C0         209.6039  -134.4334  -130.2717 C0            1 RES     
    5835 C0         210.0573  -135.7081  -129.5591 C0            1 RES     
    5836 C0         201.8974  -138.3656  -126.2517 C0            1 RES     
    5837 C0         200.3734  -138.0391  -126.3121 C0            1 RES     
    5838 C0         199.6223  -139.0059  -125.3916 C0            1 RES     
    5839 C0         198.1054  -139.0961  -125.5316 C0            1 RES     
    5840 C0         197.2969  -137.9957  -124.8600 C0            1 RES     
    5841 C0         195.8023  -138.3073  -125.0840 C0            1 RES     
    5842 C0         194.8464  -137.3985  -124.3079 C0            1 RES     
    5843 C0         194.9179  -137.6354  -122.7979 C0            1 RES     
    5844 H6         201.3665  -139.8473  -128.8274 H6            1 RES     
    5845 H6         203.0651  -140.1964  -129.0755 H6            1 RES     
    5846 H6         203.7120  -138.8656  -127.2597 H6            1 RES     
    5847 H6         201.5097  -137.5824  -129.0383 H6            1 RES     
    5848 H6         203.2047  -137.9349  -129.5068 H6            1 RES     
    5849 H6         203.9969  -136.2132  -127.8577 H6            1 RES     
    5850 H6         202.2878  -135.8867  -127.4056 H6            1 RES     
    5851 H6         202.9906  -134.1810  -128.9600 H6            1 RES     
    5852 H6         201.7044  -135.1750  -129.6845 H6            1 RES     
    5853 H6         203.4494  -134.5787  -131.3321 H6            1 RES     
    5854 H6         203.3159  -136.3484  -131.1393 H6            1 RES     
    5855 H6         205.3567  -136.4173  -129.7445 H6            1 RES     
    5856 H6         205.6498  -135.6561  -131.3417 H6            1 RES     
    5857 H6         205.2107  -134.1499  -128.6778 H6            1 RES     
    5858 H6         205.5344  -133.3629  -130.2645 H6            1 RES     
    5859 H6         207.5095  -133.5125  -128.7333 H6            1 RES     
    5860 H6         207.3773  -135.3084  -128.7247 H6            1 RES     
    5861 H6         207.8688  -135.3072  -131.2302 H6            1 RES     
    5862 H6         207.8903  -133.5060  -131.1891 H6            1 RES     
    5863 H6         209.8595  -133.5474  -129.6505 H6            1 RES     
    5864 H6         210.1663  -134.3587  -131.2274 H6            1 RES     
    5865 H6         209.5690  -135.8137  -128.5694 H6            1 RES     
    5866 H6         209.8251  -136.5981  -130.1817 H6            1 RES     
    5867 H6         211.1544  -135.6664  -129.3944 H6            1 RES     
    5868 H6         202.4003  -137.4666  -125.8353 H6            1 RES     
    5869 H6         202.1136  -139.1383  -125.4832 H6            1 RES     
    5870 H6         200.1775  -137.0014  -125.9601 H6            1 RES     
    5871 H6         200.0062  -138.1253  -127.3549 H6            1 RES     
    5872 H6         199.9278  -138.8997  -124.3293 H6            1 RES     
    5873 H6         199.9515  -139.9670  -125.7250 H6            1 RES     
    5874 H6         197.8487  -139.1820  -126.5903 H6            1 RES     
    5875 H6         197.8020  -140.0497  -125.0425 H6            1 RES     
    5876 H6         197.5480  -138.0176  -123.7783 H6            1 RES     
    5877 H6         197.5484  -136.9964  -125.2739 H6            1 RES     
    5878 H6         195.5897  -138.2061  -126.1725 H6            1 RES     
    5879 H6         195.5760  -139.3589  -124.7946 H6            1 RES     
    5880 H6         193.8107  -137.6418  -124.6326 H6            1 RES     
    5881 H6         195.0485  -136.3331  -124.5467 H6            1 RES     
    5882 H6         195.9154  -137.3749  -122.3923 H6            1 RES     
    5883 H6         194.1609  -137.0056  -122.2879 H6            1 RES     
    5884 H6         194.6994  -138.7020  -122.5673 H6            1 RES     
    5885 C0         202.0554  -142.6280  -128.9109 C0            1 RES     
    5886 C0         201.7912  -142.3366  -130.4573 C0            1 RES     
    5887 C0         201.3382  -143.6945  -131.0923 C0            1 RES     
    5888 C0         201.2820  -143.7238  -132.6330 C0            1 RES     
    5889 C0         200.8095  -145.0689  -133.2124 C0            1 RES     
    5890 C0         201.6767  -146.2905  -132.8593 C0            1 RES     
    5891 C0         203.1711  -146.1495  -133.1932 C0            1 RES     
    5892 C0         203.4411  -145.8481  -134.6779 C0            1 RES     
    5893 C0         204.9388  -145.7052  -134.9939 C0            1 RES     
    5894 C0         205.7151  -147.0233  -134.8240 C0            1 RES     
    5895 C0         207.1850  -146.9145  -135.2585 C0            1 RES     
    5896 C0         208.0053  -145.9692  -134.3807 C0            1 RES     
    5897 C0         200.9418  -141.1250  -131.0298 C0            1 RES     
    5898 C0         199.4038  -141.0276  -130.8230 C0            1 RES     
    5899 C0         199.0180  -139.9515  -129.7922 C0            1 RES     
    5900 C0         197.5392  -139.8177  -129.4683 C0            1 RES     
    5901 C0         196.6537  -139.1844  -130.5322 C0            1 RES     
    5902 C0         195.2557  -139.0022  -129.9065 C0            1 RES     
    5903 C0         194.2636  -138.2346  -130.7821 C0            1 RES     
    5904 C0         194.6552  -136.7661  -130.9532 C0            1 RES     
    5905 H6         201.3945  -143.4661  -128.5887 H6            1 RES     
    5906 H6         203.0466  -143.1353  -128.8952 H6            1 RES     
    5907 H6         202.8055  -142.1066  -130.8580 H6            1 RES     
    5908 H6         200.3349  -143.9633  -130.6967 H6            1 RES     
    5909 H6         202.0555  -144.4777  -130.7651 H6            1 RES     
    5910 H6         202.2794  -143.4587  -133.0420 H6            1 RES     
    5911 H6         200.5429  -142.9881  -133.0052 H6            1 RES     
    5912 H6         200.7675  -144.9646  -134.3176 H6            1 RES     
    5913 H6         199.7707  -145.2702  -132.8694 H6            1 RES     
    5914 H6         201.2631  -147.1693  -133.4008 H6            1 RES     
    5915 H6         201.5849  -146.5034  -131.7729 H6            1 RES     
    5916 H6         203.6168  -145.3451  -132.5698 H6            1 RES     
    5917 H6         203.6528  -147.1064  -132.9062 H6            1 RES     
    5918 H6         202.9653  -144.8801  -134.9400 H6            1 RES     
    5919 H6         202.9957  -146.6395  -135.3189 H6            1 RES     
    5920 H6         205.0295  -145.3840  -136.0544 H6            1 RES     
    5921 H6         205.3661  -144.9067  -134.3508 H6            1 RES     
    5922 H6         205.6821  -147.3721  -133.7713 H6            1 RES     
    5923 H6         205.2313  -147.7937  -135.4634 H6            1 RES     
    5924 H6         207.2411  -146.5833  -136.3183 H6            1 RES     
    5925 H6         207.6397  -147.9261  -135.1879 H6            1 RES     
    5926 H6         207.6318  -144.9277  -134.4504 H6            1 RES     
    5927 H6         207.9726  -146.3033  -133.3218 H6            1 RES     
    5928 H6         209.0618  -145.9767  -134.7221 H6            1 RES     
    5929 H6         201.0859  -141.1765  -132.1246 H6            1 RES     
    5930 H6         201.4265  -140.1422  -130.8781 H6            1 RES     
    5931 H6         198.9567  -140.6679  -131.7759 H6            1 RES     
    5932 H6         198.9685  -142.0243  -130.6071 H6            1 RES     
    5933 H6         199.4297  -138.9623  -130.0960 H6            1 RES     
    5934 H6         199.4377  -140.2042  -128.8250 H6            1 RES     
    5935 H6         197.1340  -140.7990  -129.1383 H6            1 RES     
    5936 H6         197.4991  -139.1081  -128.6254 H6            1 RES     
    5937 H6         197.0940  -138.1999  -130.7973 H6            1 RES     
    5938 H6         196.6015  -139.8190  -131.4413 H6            1 RES     
    5939 H6         194.8397  -140.0115  -129.6933 H6            1 RES     
    5940 H6         195.3343  -138.4595  -128.9363 H6            1 RES     
    5941 H6         193.2791  -138.2588  -130.2653 H6            1 RES     
    5942 H6         194.1597  -138.7315  -131.7671 H6            1 RES     
    5943 H6         195.6133  -136.6632  -131.5003 H6            1 RES     
    5944 H6         193.8671  -136.2420  -131.5317 H6            1 RES     
    5945 H6         194.7479  -136.2741  -129.9601 H6            1 RES     
    5946 C0         214.4048  -142.7888  -123.7541 C0            1 RES     
    5947 C1         212.8892  -142.9180  -123.4858 C1            1 RES     
    5948 C1         212.6194  -143.7029  -122.4105 C1            1 RES     
    5949 S2         210.9831  -143.9388  -122.1472 S2            1 RES     
    5950 C1         210.5627  -143.0174  -123.5129 C1            1 RES     
    5951 C1         211.7120  -142.5430  -124.1545 C1            1 RES     
    5952 C1         213.8361  -144.1897  -121.8857 C1            1 RES     
    5953 C1         214.8636  -143.7651  -122.6698 C1            1 RES     
    5954 C1         216.0796  -144.3242  -122.2959 C1            1 RES     
    5955 C1         215.9178  -145.1560  -121.1750 C1            1 RES     
    5956 S2         214.3001  -145.2168  -120.6624 S2            1 RES     
    5957 H3         211.6564  -142.0034  -125.0808 H3            1 RES     
    5958 H3         217.0199  -144.1457  -122.8037 H3            1 RES     
    5959 N4         218.3432  -146.5633  -118.6876 N4            1 RES     
    5960 C1         217.4094  -145.7470  -119.2585 C1            1 RES     
    5961 C1         216.9480  -145.9885  -120.5641 C1            1 RES     
    5962 C1         217.4542  -147.0958  -121.2471 C1            1 RES     
    5963 N4         217.0517  -147.4737  -122.4875 N4            1 RES     
    5964 S2         217.9299  -148.8517  -122.7364 S2            1 RES     
    5965 N4         218.8149  -149.0124  -121.3474 N4            1 RES     
    5966 C1         218.4085  -147.9393  -120.6249 C1            1 RES     
    5967 C1         218.8550  -147.6450  -119.3393 C1            1 RES     
    5968 H5         217.0291  -144.8984  -118.6965 H5            1 RES     
    5969 C0         215.1191  -141.4118  -123.5169 C0            1 RES     
    5970 C0         215.4664  -140.6612  -122.1760 C0            1 RES     
    5971 C0         216.0596  -139.2790  -122.6231 C0            1 RES     
    5972 C0         216.5613  -138.3488  -121.5117 C0            1 RES     
    5973 C0         217.0753  -136.9985  -122.0643 C0            1 RES     
    5974 C0         218.2926  -137.0790  -123.0118 C0            1 RES     
    5975 C0         219.5168  -137.8102  -122.4332 C0            1 RES     
    5976 C0         220.0246  -137.1897  -121.1195 C0            1 RES     
    5977 C0         221.2109  -137.9546  -120.5152 C0            1 RES     
    5978 C0         222.4871  -137.8655  -121.3690 C0            1 RES     
    5979 C0         223.6970  -138.5366  -120.6998 C0            1 RES     
    5980 C0         223.5398  -140.0503  -120.5501 C0            1 RES     
    5981 C0         214.3687  -140.5001  -121.0741 C0            1 RES     
    5982 C0         213.1042  -139.6389  -121.3777 C0            1 RES     
    5983 C0         211.8583  -140.5171  -121.2275 C0            1 RES     
    5984 C0         210.5391  -139.9909  -121.7856 C0            1 RES     
    5985 C0         209.7976  -138.9763  -120.9275 C0            1 RES     
    5986 C0         208.4822  -138.6205  -121.6515 C0            1 RES     
    5987 C0         207.5257  -137.7535  -120.8296 C0            1 RES     
    5988 C0         206.9446  -138.5065  -119.6310 C0            1 RES     
    5989 H6         214.5772  -140.6950  -124.0792 H6            1 RES     
    5990 H6         216.1135  -141.5331  -124.0030 H6            1 RES     
    5991 H6         216.2734  -141.2483  -121.6834 H6            1 RES     
    5992 H6         215.2896  -138.7180  -123.1967 H6            1 RES     
    5993 H6         216.9084  -139.4815  -123.3108 H6            1 RES     
    5994 H6         217.3500  -138.8546  -120.9184 H6            1 RES     
    5995 H6         215.7192  -138.1028  -120.8338 H6            1 RES     
    5996 H6         217.3344  -136.3494  -121.2025 H6            1 RES     
    5997 H6         216.2502  -136.4863  -122.6072 H6            1 RES     
    5998 H6         218.5867  -136.0408  -123.2840 H6            1 RES     
    5999 H6         217.9997  -137.5874  -123.9553 H6            1 RES     
    6000 H6         219.2591  -138.8767  -122.2622 H6            1 RES     
    6001 H6         220.3160  -137.7743  -123.2023 H6            1 RES     
    6002 H6         219.2125  -137.2334  -120.3655 H6            1 RES     
    6003 H6         220.2985  -136.1235  -121.2769 H6            1 RES     
    6004 H6         221.4277  -137.5058  -119.5213 H6            1 RES     
    6005 H6         220.9084  -139.0117  -120.3612 H6            1 RES     
    6006 H6         222.3305  -138.3244  -122.3672 H6            1 RES     
    6007 H6         222.7327  -136.7905  -121.5117 H6            1 RES     
    6008 H6         223.8778  -138.0798  -119.7023 H6            1 RES     
    6009 H6         224.5907  -138.3478  -121.3330 H6            1 RES     
    6010 H6         222.6921  -140.3049  -119.8824 H6            1 RES     
    6011 H6         223.3796  -140.5188  -121.5444 H6            1 RES     
    6012 H6         224.4638  -140.4731  -120.1030 H6            1 RES     
    6013 H6         214.8534  -140.0518  -120.1805 H6            1 RES     
    6014 H6         214.0890  -141.5126  -120.7120 H6            1 RES     
    6015 H6         213.0211  -138.7924  -120.6596 H6            1 RES     
    6016 H6         213.1665  -139.2183  -122.4019 H6            1 RES     
    6017 H6         211.7378  -140.9046  -120.1940 H6            1 RES     
    6018 H6         212.0702  -141.3526  -121.8602 H6            1 RES     
    6019 H6         210.7063  -139.6050  -122.7942 H6            1 RES     
    6020 H6         209.8651  -140.8726  -121.8798 H6            1 RES     
    6021 H6         209.5925  -139.4613  -119.9496 H6            1 RES     
    6022 H6         210.4060  -138.0621  -120.7623 H6            1 RES     
    6023 H6         208.7420  -138.0788  -122.5893 H6            1 RES     
    6024 H6         207.9337  -139.5460  -121.9400 H6            1 RES     
    6025 H6         206.6747  -137.4720  -121.4882 H6            1 RES     
    6026 H6         208.0359  -136.8247  -120.4982 H6            1 RES     
    6027 H6         207.7336  -138.7871  -118.9057 H6            1 RES     
    6028 H6         206.2082  -137.8615  -119.1100 H6            1 RES     
    6029 H6         206.4227  -139.4276  -119.9744 H6            1 RES     
    6030 C0         214.6088  -143.3206  -125.2276 C0            1 RES     
    6031 C0         215.0443  -142.4374  -126.4832 C0            1 RES     
    6032 C0         214.5882  -143.2249  -127.7575 C0            1 RES     
    6033 C0         215.1360  -142.6969  -129.0988 C0            1 RES     
    6034 C0         214.6436  -143.4855  -130.3251 C0            1 RES     
    6035 C0         215.0086  -144.9805  -130.3493 C0            1 RES     
    6036 C0         216.5049  -145.2908  -130.1780 C0            1 RES     
    6037 C0         217.3953  -144.6160  -131.2363 C0            1 RES     
    6038 C0         218.8879  -144.9319  -131.0481 C0            1 RES     
    6039 C0         219.2223  -146.4138  -131.2960 C0            1 RES     
    6040 C0         220.7291  -146.7080  -131.2315 C0            1 RES     
    6041 C0         221.3264  -146.4955  -129.8404 C0            1 RES     
    6042 C0         214.7791  -140.8817  -126.6458 C0            1 RES     
    6043 C0         213.3465  -140.3055  -126.8289 C0            1 RES     
    6044 C0         212.8361  -139.5910  -125.5647 C0            1 RES     
    6045 C0         211.4184  -139.0457  -125.6161 C0            1 RES     
    6046 C0         211.1857  -137.8063  -126.4687 C0            1 RES     
    6047 C0         209.7325  -137.3531  -126.2197 C0            1 RES     
    6048 C0         209.3605  -136.0238  -126.8791 C0            1 RES     
    6049 C0         210.1026  -134.8396  -126.2578 C0            1 RES     
    6050 H6         213.7067  -143.9139  -125.5055 H6            1 RES     
    6051 H6         215.3751  -144.1274  -125.1837 H6            1 RES     
    6052 H6         216.1579  -142.4718  -126.4545 H6            1 RES     
    6053 H6         213.4778  -143.2263  -127.8052 H6            1 RES     
    6054 H6         214.9266  -144.2774  -127.6448 H6            1 RES     
    6055 H6         216.2457  -142.6919  -129.0657 H6            1 RES     
    6056 H6         214.7853  -141.6620  -129.2771 H6            1 RES     
    6057 H6         215.0629  -142.9979  -131.2310 H6            1 RES     
    6058 H6         213.5371  -143.3974  -130.3964 H6            1 RES     
    6059 H6         214.6571  -145.4009  -131.3170 H6            1 RES     
    6060 H6         214.4532  -145.5065  -129.5437 H6            1 RES     
    6061 H6         216.8364  -144.9747  -129.1659 H6            1 RES     
    6062 H6         216.6103  -146.3931  -130.2400 H6            1 RES     
    6063 H6         217.2878  -143.5149  -131.1467 H6            1 RES     
    6064 H6         217.0739  -144.9148  -132.2576 H6            1 RES     
    6065 H6         219.4562  -144.3210  -131.7829 H6            1 RES     
    6066 H6         219.1940  -144.6211  -130.0267 H6            1 RES     
    6067 H6         218.7024  -147.0669  -130.5652 H6            1 RES     
    6068 H6         218.8706  -146.6809  -132.3164 H6            1 RES     
    6069 H6         221.2683  -146.0761  -131.9702 H6            1 RES     
    6070 H6         220.8832  -147.7729  -131.5096 H6            1 RES     
    6071 H6         221.2510  -145.4349  -129.5266 H6            1 RES     
    6072 H6         220.8077  -147.1382  -129.0976 H6            1 RES     
    6073 H6         222.4019  -146.7710  -129.8576 H6            1 RES     
    6074 H6         215.3259  -140.6004  -127.5644 H6            1 RES     
    6075 H6         215.3700  -140.2627  -125.9447 H6            1 RES     
    6076 H6         213.4009  -139.5016  -127.5957 H6            1 RES     
    6077 H6         212.6524  -141.0817  -127.2101 H6            1 RES     
    6078 H6         213.5420  -138.7823  -125.2682 H6            1 RES     
    6079 H6         212.7753  -140.2975  -124.7445 H6            1 RES     
    6080 H6         210.7098  -139.8590  -125.8850 H6            1 RES     
    6081 H6         211.2092  -138.7094  -124.5872 H6            1 RES     
    6082 H6         211.9009  -137.0256  -126.1338 H6            1 RES     
    6083 H6         211.3552  -138.0211  -127.5443 H6            1 RES     
    6084 H6         209.0539  -138.1463  -126.6038 H6            1 RES     
    6085 H6         209.5423  -137.2486  -125.1266 H6            1 RES     
    6086 H6         208.2735  -135.8628  -126.7078 H6            1 RES     
    6087 H6         209.5442  -136.0744  -127.9706 H6            1 RES     
    6088 H6         211.1954  -134.9125  -126.4262 H6            1 RES     
    6089 H6         209.7421  -133.8981  -126.7205 H6            1 RES     
    6090 H6         209.9047  -134.7919  -125.1644 H6            1 RES     
    6091 C0         223.5744  -149.7669  -117.6652 C0            1 RES     
    6092 C1         222.0875  -149.4160  -117.8925 C1            1 RES     
    6093 C1         221.2508  -150.3670  -117.4019 C1            1 RES     
    6094 S2         219.6345  -150.0623  -117.7134 S2            1 RES     
    6095 C1         219.9992  -148.6401  -118.5709 C1            1 RES     
    6096 C1         221.3821  -148.4295  -118.6016 C1            1 RES     
    6097 C1         222.0232  -151.4147  -116.8555 C1            1 RES     
    6098 C1         223.3422  -151.1531  -117.0623 C1            1 RES     
    6099 C1         224.1572  -152.2109  -116.6774 C1            1 RES     
    6100 C1         223.3887  -153.2577  -116.1409 C1            1 RES     
    6101 S2         221.7299  -152.8949  -116.1558 S2            1 RES     
    6102 H3         221.8155  -147.6227  -119.1617 H3            1 RES     
    6103 H3         225.2354  -152.2256  -116.7829 H3            1 RES     
    6104 N4         224.2661  -156.2220  -114.0211 N4            1 RES     
    6105 C1         223.8373  -154.9774  -114.3834 C1            1 RES     
    6106 C1         223.8842  -154.5655  -115.7265 C1            1 RES     
    6107 C1         224.3587  -155.4714  -116.6768 C1            1 RES     
    6108 N4         224.4024  -155.2215  -118.0107 N4            1 RES     
    6109 S2         224.9787  -156.6476  -118.6158 S2            1 RES     
    6110 N4         225.1882  -157.5909  -117.2724 N4            1 RES     
    6111 C1         224.7797  -156.7648  -116.2778 C1            1 RES     
    6112 C1         224.7390  -157.1186  -114.9317 C1            1 RES     
    6113 H5         223.4653  -154.2993  -113.6203 H5            1 RES     
    6114 C0         224.4241  -148.9210  -116.6525 C0            1 RES     
    6115 C0         224.3742  -148.8635  -115.0790 C0            1 RES     
    6116 C0         225.3855  -147.7321  -114.6791 C0            1 RES     
    6117 C0         225.6034  -147.4967  -113.1793 C0            1 RES     
    6118 C0         226.5782  -146.3275  -112.9046 C0            1 RES     
    6119 C0         228.0189  -146.5154  -113.4292 C0            1 RES     
    6120 C0         228.7227  -147.7956  -112.9457 C0            1 RES     
    6121 C0         228.7980  -147.8998  -111.4121 C0            1 RES     
    6122 C0         229.4505  -149.2041  -110.9318 C0            1 RES     
    6123 C0         230.9445  -149.2995  -111.2844 C0            1 RES     
    6124 C0         231.6134  -150.5539  -110.7002 C0            1 RES     
    6125 C0         231.0789  -151.8557  -111.2987 C0            1 RES     
    6126 C0         222.9977  -148.7031  -114.3548 C0            1 RES     
    6127 C0         222.1788  -147.3910  -114.5557 C0            1 RES     
    6128 C0         220.8130  -147.7451  -115.1519 C0            1 RES     
    6129 C0         219.9709  -146.6142  -115.7356 C0            1 RES     
    6130 C0         219.1970  -145.7629  -114.7397 C0            1 RES     
    6131 C0         218.3856  -144.7232  -115.5410 C0            1 RES     
    6132 C0         217.4013  -143.9080  -114.6991 C0            1 RES     
    6133 C0         216.2454  -144.7600  -114.1706 C0            1 RES     
    6134 H6         224.3197  -147.9088  -116.9497 H6            1 RES     
    6135 H6         225.4756  -149.2220  -116.8608 H6            1 RES     
    6136 H6         224.7713  -149.8366  -114.7130 H6            1 RES     
    6137 H6         225.0474  -146.7672  -115.1162 H6            1 RES     
    6138 H6         226.3682  -147.9803  -115.1341 H6            1 RES     
    6139 H6         225.9626  -148.4277  -112.6955 H6            1 RES     
    6140 H6         224.6401  -147.2101  -112.7111 H6            1 RES     
    6141 H6         226.6153  -146.1596  -111.8084 H6            1 RES     
    6142 H6         226.1682  -145.3951  -113.3520 H6            1 RES     
    6143 H6         228.6182  -145.6322  -113.1144 H6            1 RES     
    6144 H6         228.0150  -146.5210  -114.5402 H6            1 RES     
    6145 H6         228.1892  -148.6816  -113.3501 H6            1 RES     
    6146 H6         229.7459  -147.7915  -113.3753 H6            1 RES     
    6147 H6         227.7675  -147.9008  -111.0022 H6            1 RES     
    6148 H6         229.3406  -147.0247  -110.9920 H6            1 RES     
    6149 H6         229.3535  -149.2396  -109.8247 H6            1 RES     
    6150 H6         228.8859  -150.0597  -111.3581 H6            1 RES     
    6151 H6         231.0948  -149.2934  -112.3839 H6            1 RES     
    6152 H6         231.4580  -148.4116  -110.8552 H6            1 RES     
    6153 H6         231.4846  -150.5703  -109.5959 H6            1 RES     
    6154 H6         232.7015  -150.4993  -110.9200 H6            1 RES     
    6155 H6         230.0038  -151.9959  -111.0671 H6            1 RES     
    6156 H6         231.2222  -151.8579  -112.4001 H6            1 RES     
    6157 H6         231.6347  -152.7140  -110.8665 H6            1 RES     
    6158 H6         223.1791  -148.8024  -113.2632 H6            1 RES     
    6159 H6         222.3816  -149.6005  -114.5776 H6            1 RES     
    6160 H6         222.0104  -146.8775  -113.5825 H6            1 RES     
    6161 H6         222.7294  -146.6963  -115.2220 H6            1 RES     
    6162 H6         220.2140  -148.3930  -114.4779 H6            1 RES     
    6163 H6         221.0653  -148.3257  -116.0136 H6            1 RES     
    6164 H6         220.6014  -145.9934  -116.3769 H6            1 RES     
    6165 H6         219.2108  -147.0964  -116.3916 H6            1 RES     
    6166 H6         218.5227  -146.4447  -114.1794 H6            1 RES     
    6167 H6         219.8778  -145.2531  -114.0257 H6            1 RES     
    6168 H6         219.1055  -144.0263  -116.0271 H6            1 RES     
    6169 H6         217.8041  -145.2221  -116.3495 H6            1 RES     
    6170 H6         216.9624  -143.1254  -115.3563 H6            1 RES     
    6171 H6         217.9325  -143.4072  -113.8626 H6            1 RES     
    6172 H6         216.6030  -145.5423  -113.4724 H6            1 RES     
    6173 H6         215.5265  -144.1132  -113.6279 H6            1 RES     
    6174 H6         215.7102  -145.2458  -115.0169 H6            1 RES     
    6175 C0         224.2169  -149.7915  -119.1082 C0            1 RES     
    6176 C0         225.2940  -148.7540  -119.6644 C0            1 RES     
    6177 C0         225.2123  -148.8266  -121.2266 C0            1 RES     
    6178 C0         226.3447  -148.1074  -121.9872 C0            1 RES     
    6179 C0         226.2115  -148.1841  -123.5184 C0            1 RES     
    6180 C0         226.2156  -149.6010  -124.1197 C0            1 RES     
    6181 C0         227.4155  -150.4764  -123.7215 C0            1 RES     
    6182 C0         228.7751  -149.8538  -124.0847 C0            1 RES     
    6183 C0         229.9638  -150.7386  -123.6756 C0            1 RES     
    6184 C0         230.0312  -152.0555  -124.4695 C0            1 RES     
    6185 C0         231.2859  -152.8840  -124.1524 C0            1 RES     
    6186 C0         231.3204  -153.4003  -122.7138 C0            1 RES     
    6187 C0         225.4657  -147.2567  -119.1688 C0            1 RES     
    6188 C0         224.3863  -146.1708  -119.4401 C0            1 RES     
    6189 C0         223.5929  -145.8036  -118.1732 C0            1 RES     
    6190 C0         222.4682  -144.7954  -118.3422 C0            1 RES     
    6191 C0         222.8696  -143.3448  -118.5692 C0            1 RES     
    6192 C0         221.5751  -142.5070  -118.5333 C0            1 RES     
    6193 C0         221.7962  -140.9944  -118.5915 C0            1 RES     
    6194 C0         222.4772  -140.4581  -117.3314 C0            1 RES     
    6195 H6         223.3891  -149.8775  -119.8501 H6            1 RES     
    6196 H6         224.7049  -150.7844  -119.2346 H6            1 RES     
    6197 H6         226.2692  -149.2016  -119.3634 H6            1 RES     
    6198 H6         224.2395  -148.4044  -121.5592 H6            1 RES     
    6199 H6         225.2370  -149.8987  -121.5179 H6            1 RES     
    6200 H6         227.3235  -148.5210  -121.6656 H6            1 RES     
    6201 H6         226.3308  -147.0232  -121.7630 H6            1 RES     
    6202 H6         227.0493  -147.6033  -123.9599 H6            1 RES     
    6203 H6         225.2712  -147.6780  -123.8296 H6            1 RES     
    6204 H6         226.1884  -149.5008  -125.2268 H6            1 RES     
    6205 H6         225.2872  -150.1304  -123.8167 H6            1 RES     
    6206 H6         227.3843  -150.6748  -122.6288 H6            1 RES     
    6207 H6         227.2896  -151.4459  -124.2454 H6            1 RES     
    6208 H6         228.8879  -148.8942  -123.5382 H6            1 RES     
    6209 H6         228.8227  -149.6410  -125.1746 H6            1 RES     
    6210 H6         230.8947  -150.1650  -123.8764 H6            1 RES     
    6211 H6         229.9051  -150.9354  -122.5840 H6            1 RES     
    6212 H6         229.1356  -152.6820  -124.2785 H6            1 RES     
    6213 H6         230.0584  -151.8046  -125.5524 H6            1 RES     
    6214 H6         232.1971  -152.2803  -124.3547 H6            1 RES     
    6215 H6         231.2966  -153.7642  -124.8308 H6            1 RES     
    6216 H6         231.3649  -152.5649  -121.9863 H6            1 RES     
    6217 H6         230.4234  -154.0223  -122.5075 H6            1 RES     
    6218 H6         232.2261  -154.0263  -122.5710 H6            1 RES     
    6219 H6         226.3766  -146.8964  -119.6811 H6            1 RES     
    6220 H6         225.8553  -147.1809  -118.1362 H6            1 RES     
    6221 H6         224.9139  -145.2311  -119.7157 H6            1 RES     
    6222 H6         223.7442  -146.4552  -120.2982 H6            1 RES     
    6223 H6         224.2859  -145.4662  -117.3694 H6            1 RES     
    6224 H6         223.0602  -146.6753  -117.8097 H6            1 RES     
    6225 H6         221.7610  -145.1455  -119.1253 H6            1 RES     
    6226 H6         221.9523  -144.7841  -117.3680 H6            1 RES     
    6227 H6         223.5497  -143.0481  -117.7429 H6            1 RES     
    6228 H6         223.3955  -143.2205  -119.5387 H6            1 RES     
    6229 H6         220.9442  -142.8108  -119.3975 H6            1 RES     
    6230 H6         220.9995  -142.7249  -117.6042 H6            1 RES     
    6231 H6         220.7943  -140.5163  -118.6577 H6            1 RES     
    6232 H6         222.3773  -140.7280  -119.4966 H6            1 RES     
    6233 H6         223.5027  -140.8632  -117.2213 H6            1 RES     
    6234 H6         222.5456  -139.3527  -117.3945 H6            1 RES     
    6235 H6         221.8822  -140.7225  -116.4298 H6            1 RES     
    6236 C0         227.8251  -161.2595  -113.2266 C0            1 RES     
    6237 C1         226.6647  -160.3330  -113.6517 C1            1 RES     
    6238 C1         225.5145  -161.0176  -113.8832 C1            1 RES     
    6239 S2         224.2613  -160.0546  -114.4350 S2            1 RES     
    6240 C1         225.2385  -158.6632  -114.4268 C1            1 RES     
    6241 C1         226.5317  -158.9772  -113.9949 C1            1 RES     
    6242 C1         225.7576  -162.3946  -113.6889 C1            1 RES     
    6243 C1         227.0741  -162.5804  -113.4008 C1            1 RES     
    6244 C1         227.4163  -163.9258  -113.3375 C1            1 RES     
    6245 C1         226.2878  -164.7340  -113.5554 C1            1 RES     
    6246 S2         224.8932  -163.8077  -113.8391 S2            1 RES     
    6247 H3         227.3171  -158.2454  -113.9935 H3            1 RES     
    6248 H3         228.4170  -164.2970  -113.1512 H3            1 RES     
    6249 N4         225.5826  -168.3491  -112.8596 N4            1 RES     
    6250 C1         225.6177  -166.9916  -112.7178 C1            1 RES     
    6251 C1         226.2779  -166.1886  -113.6639 C1            1 RES     
    6252 C1         226.8736  -166.8164  -114.7593 C1            1 RES     
    6253 N4         227.4913  -166.1554  -115.7716 N4            1 RES     
    6254 S2         227.9273  -167.3891  -116.7813 S2            1 RES     
    6255 N4         227.3782  -168.7452  -116.0082 N4            1 RES     
    6256 C1         226.8063  -168.2259  -114.8938 C1            1 RES     
    6257 C1         226.1634  -168.9821  -113.9172 C1            1 RES     
    6258 H5         225.1364  -166.5334  -111.8581 H5            1 RES     
    6259 C0         228.3737  -161.1902  -111.7579 C0            1 RES     
    6260 C0         227.7245  -161.6663  -110.4037 C0            1 RES     
    6261 C0         228.7210  -161.1977  -109.2857 C0            1 RES     
    6262 C0         228.3792  -161.5928  -107.8437 C0            1 RES     
    6263 C0         229.4008  -161.0349  -106.8249 C0            1 RES     
    6264 C0         230.8511  -161.5435  -106.9791 C0            1 RES     
    6265 C0         231.0060  -163.0745  -106.9615 C0            1 RES     
    6266 C0         230.4485  -163.7224  -105.6817 C0            1 RES     
    6267 C0         230.5535  -165.2542  -105.6912 C0            1 RES     
    6268 C0         232.0045  -165.7620  -105.6430 C0            1 RES     
    6269 C0         232.0945  -167.2927  -105.5371 C0            1 RES     
    6270 C0         231.5637  -168.0145  -106.7763 C0            1 RES     
    6271 C0         226.2470  -161.2738  -110.0751 C0            1 RES     
    6272 C0         225.8855  -159.7709  -109.8675 C0            1 RES     
    6273 C0         224.8218  -159.3703  -110.8942 C0            1 RES     
    6274 C0         224.5496  -157.8830  -111.1010 C0            1 RES     
    6275 C0         223.6565  -157.2084  -110.0700 C0            1 RES     
    6276 C0         223.4770  -155.7360  -110.4955 C0            1 RES     
    6277 C0         222.4485  -154.9623  -109.6674 C0            1 RES     
    6278 C0         221.0205  -155.4576  -109.9056 C0            1 RES     
    6279 H6         228.6214  -160.1748  -111.5806 H6            1 RES     
    6280 H6         229.3275  -161.7634  -111.7957 H6            1 RES     
    6281 H6         227.7198  -162.7789  -110.4279 H6            1 RES     
    6282 H6         228.8045  -160.0892  -109.3104 H6            1 RES     
    6283 H6         229.7219  -161.6148  -109.5281 H6            1 RES     
    6284 H6         228.3039  -162.6959  -107.7583 H6            1 RES     
    6285 H6         227.3991  -161.1541  -107.5677 H6            1 RES     
    6286 H6         229.0409  -161.2824  -105.8049 H6            1 RES     
    6287 H6         229.4169  -159.9244  -106.8919 H6            1 RES     
    6288 H6         231.4583  -161.1090  -106.1539 H6            1 RES     
    6289 H6         231.2823  -161.1629  -107.9296 H6            1 RES     
    6290 H6         230.4922  -163.5046  -107.8469 H6            1 RES     
    6291 H6         232.0890  -163.2973  -107.0574 H6            1 RES     
    6292 H6         229.3675  -163.4874  -105.6031 H6            1 RES     
    6293 H6         230.9618  -163.3104  -104.7854 H6            1 RES     
    6294 H6         230.0247  -165.6321  -104.7891 H6            1 RES     
    6295 H6         230.0272  -165.6390  -106.5898 H6            1 RES     
    6296 H6         232.5714  -165.4317  -106.5380 H6            1 RES     
    6297 H6         232.4912  -165.3315  -104.7408 H6            1 RES     
    6298 H6         231.5426  -167.6415  -104.6371 H6            1 RES     
    6299 H6         233.1641  -167.5681  -105.4143 H6            1 RES     
    6300 H6         230.4821  -167.8218  -106.9245 H6            1 RES     
    6301 H6         232.1233  -167.6881  -107.6786 H6            1 RES     
    6302 H6         231.7001  -169.1090  -106.6505 H6            1 RES     
    6303 H6         225.9587  -161.8035  -109.1419 H6            1 RES     
    6304 H6         225.5856  -161.7463  -110.8326 H6            1 RES     
    6305 H6         225.4670  -159.6021  -108.8499 H6            1 RES     
    6306 H6         226.7924  -159.1421  -109.9767 H6            1 RES     
    6307 H6         223.8790  -159.9436  -110.7699 H6            1 RES     
    6308 H6         225.2564  -159.6663  -111.8251 H6            1 RES     
    6309 H6         225.5016  -157.3560  -111.2013 H6            1 RES     
    6310 H6         224.0215  -157.7943  -112.0777 H6            1 RES     
    6311 H6         222.6837  -157.7441  -110.0778 H6            1 RES     
    6312 H6         224.0971  -157.2644  -109.0522 H6            1 RES     
    6313 H6         224.4647  -155.2296  -110.4056 H6            1 RES     
    6314 H6         223.1645  -155.6744  -111.5628 H6            1 RES     
    6315 H6         222.4879  -153.8982  -109.9886 H6            1 RES     
    6316 H6         222.7054  -155.0135  -108.5884 H6            1 RES     
    6317 H6         220.8925  -156.5057  -109.5705 H6            1 RES     
    6318 H6         220.3091  -154.8230  -109.3390 H6            1 RES     
    6319 H6         220.7671  -155.3885  -110.9871 H6            1 RES     
    6320 C0         228.9594  -161.0172  -114.2991 C0            1 RES     
    6321 C0         230.3691  -160.3232  -114.0212 C0            1 RES     
    6322 C0         230.8931  -159.8159  -115.4070 C0            1 RES     
    6323 C0         232.3618  -159.3464  -115.4329 C0            1 RES     
    6324 C0         232.8267  -158.8345  -116.8077 C0            1 RES     
    6325 C0         232.7524  -159.8521  -117.9601 C0            1 RES     
    6326 C0         233.4733  -161.1856  -117.7020 C0            1 RES     
    6327 C0         234.9675  -161.0203  -117.3732 C0            1 RES     
    6328 C0         235.6721  -162.3616  -117.1129 C0            1 RES     
    6329 C0         235.7521  -163.2494  -118.3677 C0            1 RES     
    6330 C0         236.5641  -164.5344  -118.1431 C0            1 RES     
    6331 C0         235.9161  -165.4903  -117.1414 C0            1 RES     
    6332 C0         230.6596  -159.2640  -112.8763 C0            1 RES     
    6333 C0         230.0431  -157.8367  -112.8995 C0            1 RES     
    6334 C0         228.9190  -157.6669  -111.8617 C0            1 RES     
    6335 C0         228.2047  -156.3256  -111.8447 C0            1 RES     
    6336 C0         228.9735  -155.1410  -111.2766 C0            1 RES     
    6337 C0         227.9894  -153.9554  -111.2065 C0            1 RES     
    6338 C0         228.5447  -152.7097  -110.5138 C0            1 RES     
    6339 C0         228.7771  -152.9315  -109.0185 C0            1 RES     
    6340 H6         228.4925  -160.5317  -115.1875 H6            1 RES     
    6341 H6         229.2248  -162.0100  -114.7280 H6            1 RES     
    6342 H6         231.0225  -161.1712  -113.7113 H6            1 RES     
    6343 H6         230.2486  -158.9798  -115.7548 H6            1 RES     
    6344 H6         230.7919  -160.6503  -116.1339 H6            1 RES     
    6345 H6         233.0177  -160.1735  -115.0892 H6            1 RES     
    6346 H6         232.5016  -158.4823  -114.7549 H6            1 RES     
    6347 H6         233.8765  -158.4871  -116.7014 H6            1 RES     
    6348 H6         232.2215  -157.9453  -117.0906 H6            1 RES     
    6349 H6         233.1846  -159.3727  -118.8656 H6            1 RES     
    6350 H6         231.6873  -160.0740  -118.1849 H6            1 RES     
    6351 H6         232.9728  -161.7234  -116.8685 H6            1 RES     
    6352 H6         233.3517  -161.7958  -118.6201 H6            1 RES     
    6353 H6         235.0664  -160.4216  -116.4437 H6            1 RES     
    6354 H6         235.4847  -160.4771  -118.1934 H6            1 RES     
    6355 H6         236.7091  -162.1377  -116.7804 H6            1 RES     
    6356 H6         235.1478  -162.8875  -116.2869 H6            1 RES     
    6357 H6         234.7388  -163.5285  -118.7233 H6            1 RES     
    6358 H6         236.2568  -162.6682  -119.1701 H6            1 RES     
    6359 H6         237.5908  -164.2767  -117.8033 H6            1 RES     
    6360 H6         236.6449  -165.0641  -119.1167 H6            1 RES     
    6361 H6         235.8555  -165.0366  -116.1317 H6            1 RES     
    6362 H6         234.8966  -165.7704  -117.4823 H6            1 RES     
    6363 H6         236.5299  -166.4124  -117.0653 H6            1 RES     
    6364 H6         231.7537  -159.1094  -112.9110 H6            1 RES     
    6365 H6         230.6191  -159.6983  -111.8597 H6            1 RES     
    6366 H6         230.8304  -157.1230  -112.5708 H6            1 RES     
    6367 H6         229.7436  -157.5505  -113.9280 H6            1 RES     
    6368 H6         229.2970  -157.9073  -110.8421 H6            1 RES     
    6369 H6         228.1078  -158.3505  -112.0860 H6            1 RES     
    6370 H6         227.8031  -156.0981  -112.8561 H6            1 RES     
    6371 H6         227.3643  -156.4636  -111.1446 H6            1 RES     
    6372 H6         229.3221  -155.4196  -110.2597 H6            1 RES     
    6373 H6         229.8509  -154.8910  -111.9088 H6            1 RES     
    6374 H6         227.6980  -153.6879  -112.2461 H6            1 RES     
    6375 H6         227.0627  -154.2540  -110.6642 H6            1 RES     
    6376 H6         227.7822  -151.9066  -110.6168 H6            1 RES     
    6377 H6         229.4776  -152.3795  -111.0123 H6            1 RES     
    6378 H6         229.5596  -153.6953  -108.8389 H6            1 RES     
    6379 H6         229.1078  -151.9799  -108.5542 H6            1 RES     
    6380 H6         227.8335  -153.2536  -108.5258 H6            1 RES     
    6381 C0         227.3320  -174.2793  -113.5276 C0            1 RES     
    6382 C1         226.6681  -172.9068  -113.7753 C1            1 RES     
    6383 C1         225.5805  -172.9968  -114.5841 C1            1 RES     
    6384 S2         224.8916  -171.5150  -114.9475 S2            1 RES     
    6385 C1         226.0690  -170.6739  -114.0546 C1            1 RES     
    6386 C1         226.9845  -171.5683  -113.4893 C1            1 RES     
    6387 C1         225.4162  -174.3425  -114.9777 C1            1 RES     
    6388 C1         226.4373  -175.0850  -114.4707 C1            1 RES     
    6389 C1         226.4198  -176.3945  -114.9357 C1            1 RES     
    6390 C1         225.3188  -176.6039  -115.7832 C1            1 RES     
    6391 S2         224.3904  -175.1946  -115.9718 S2            1 RES     
    6392 H3         227.8472  -171.2243  -112.9510 H3            1 RES     
    6393 H3         227.1578  -177.1462  -114.6824 H3            1 RES     
    6394 N4         223.6153  -179.7090  -117.0106 N4            1 RES     
    6395 C1         223.8917  -178.5982  -116.2664 C1            1 RES     
    6396 C1         225.0302  -177.8192  -116.5363 C1            1 RES     
    6397 C1         225.8528  -178.2011  -117.5977 C1            1 RES     
    6398 N4         226.9479  -177.5063  -117.9994 N4            1 RES     
    6399 S2         227.4600  -178.3827  -119.3039 S2            1 RES     
    6400 N4         226.3660  -179.6204  -119.4024 N4            1 RES     
    6401 C1         225.5332  -179.3475  -118.3677 C1            1 RES     
    6402 C1         224.4086  -180.1028  -118.0461 C1            1 RES     
    6403 H5         223.2263  -178.3233  -115.4526 H5            1 RES     
    6404 C0         227.2608  -174.9282  -112.1005 C0            1 RES     
    6405 C0         226.0444  -175.5699  -111.3320 C0            1 RES     
    6406 C0         226.5992  -175.9168  -109.9057 C0            1 RES     
    6407 C0         225.6407  -176.6314  -108.9450 C0            1 RES     
    6408 C0         226.2765  -176.8760  -107.5562 C0            1 RES     
    6409 C0         227.5190  -177.7934  -107.5373 C0            1 RES     
    6410 C0         227.3113  -179.1787  -108.1743 C0            1 RES     
    6411 C0         226.1678  -179.9767  -107.5228 C0            1 RES     
    6412 C0         225.9259  -181.3351  -108.1964 C0            1 RES     
    6413 C0         227.0898  -182.3220  -108.0044 C0            1 RES     
    6414 C0         226.7895  -183.7139  -108.5830 C0            1 RES     
    6415 C0         226.6420  -183.7145  -110.1050 C0            1 RES     
    6416 C0         224.6834  -174.8032  -111.2620 C0            1 RES     
    6417 C0         224.6122  -173.4442  -110.4999 C0            1 RES     
    6418 C0         224.1542  -172.3535  -111.4728 C0            1 RES     
    6419 C0         224.3219  -170.8974  -111.0477 C0            1 RES     
    6420 C0         223.2696  -170.3440  -110.0980 C0            1 RES     
    6421 C0         223.6024  -168.8592  -109.8416 C0            1 RES     
    6422 C0         222.5308  -168.1003  -109.0556 C0            1 RES     
    6423 C0         221.2397  -167.9226  -109.8573 C0            1 RES     
    6424 H6         227.6373  -174.2031  -111.4251 H6            1 RES     
    6425 H6         228.0001  -175.7598  -112.1419 H6            1 RES     
    6426 H6         225.8032  -176.5210  -111.8572 H6            1 RES     
    6427 H6         226.9290  -174.9812  -109.4033 H6            1 RES     
    6428 H6         227.4953  -176.5600  -110.0384 H6            1 RES     
    6429 H6         225.2955  -177.5862  -109.3911 H6            1 RES     
    6430 H6         224.7546  -175.9888  -108.7684 H6            1 RES     
    6431 H6         225.5001  -177.3106  -106.8932 H6            1 RES     
    6432 H6         226.5632  -175.8994  -107.1068 H6            1 RES     
    6433 H6         227.8336  -177.9258  -106.4780 H6            1 RES     
    6434 H6         228.3613  -177.2939  -108.0621 H6            1 RES     
    6435 H6         227.1046  -179.0559  -109.2584 H6            1 RES     
    6436 H6         228.2663  -179.7348  -108.0727 H6            1 RES     
    6437 H6         225.2240  -179.4048  -107.6331 H6            1 RES     
    6438 H6         226.3657  -180.1188  -106.4378 H6            1 RES     
    6439 H6         225.0162  -181.7797  -107.7372 H6            1 RES     
    6440 H6         225.7234  -181.1640  -109.2745 H6            1 RES     
    6441 H6         228.0203  -181.9349  -108.4690 H6            1 RES     
    6442 H6         227.2657  -182.4404  -106.9129 H6            1 RES     
    6443 H6         225.8663  -184.1242  -108.1185 H6            1 RES     
    6444 H6         227.6352  -184.3861  -108.3223 H6            1 RES     
    6445 H6         225.7772  -183.1005  -110.4279 H6            1 RES     
    6446 H6         227.5679  -183.3256  -110.5796 H6            1 RES     
    6447 H6         226.4719  -184.7535  -110.4572 H6            1 RES     
    6448 H6         223.9425  -175.4777  -110.7819 H6            1 RES     
    6449 H6         224.2855  -174.7071  -112.2949 H6            1 RES     
    6450 H6         223.8768  -173.4970  -109.6660 H6            1 RES     
    6451 H6         225.6040  -173.1956  -110.0706 H6            1 RES     
    6452 H6         223.1368  -172.5463  -111.8737 H6            1 RES     
    6453 H6         224.8419  -172.4465  -112.2863 H6            1 RES     
    6454 H6         225.3279  -170.7563  -110.6450 H6            1 RES     
    6455 H6         224.2534  -170.2897  -111.9786 H6            1 RES     
    6456 H6         222.2855  -170.4477  -110.6023 H6            1 RES     
    6457 H6         223.2511  -170.9057  -109.1402 H6            1 RES     
    6458 H6         224.5612  -168.8147  -109.2768 H6            1 RES     
    6459 H6         223.7560  -168.3224  -110.8055 H6            1 RES     
    6460 H6         222.9278  -167.0844  -108.8376 H6            1 RES     
    6461 H6         222.3254  -168.6117  -108.0917 H6            1 RES     
    6462 H6         220.7617  -168.8970  -110.0795 H6            1 RES     
    6463 H6         220.5229  -167.3098  -109.2740 H6            1 RES     
    6464 H6         221.4532  -167.3962  -110.8144 H6            1 RES     
    6465 C0         228.8191  -174.1147  -114.0346 C0            1 RES     
    6466 C0         230.1223  -174.1277  -113.1140 C0            1 RES     
    6467 C0         231.2462  -173.4023  -113.9281 C0            1 RES     
    6468 C0         232.6715  -173.5259  -113.3525 C0            1 RES     
    6469 C0         233.7394  -172.7787  -114.1707 C0            1 RES     
    6470 C0         233.8998  -173.2320  -115.6328 C0            1 RES     
    6471 C0         234.1466  -174.7373  -115.8270 C0            1 RES     
    6472 C0         235.3882  -175.2556  -115.0799 C0            1 RES     
    6473 C0         235.6179  -176.7624  -115.2801 C0            1 RES     
    6474 C0         235.9849  -177.1248  -116.7303 C0            1 RES     
    6475 C0         236.3371  -178.6100  -116.9071 C0            1 RES     
    6476 C0         235.1537  -179.5447  -116.6559 C0            1 RES     
    6477 C0         230.1671  -173.7151  -111.5827 C0            1 RES     
    6478 C0         229.9420  -172.2482  -111.1185 C0            1 RES     
    6479 C0         228.5689  -172.0485  -110.4520 C0            1 RES     
    6480 C0         228.2218  -170.6340  -110.0180 C0            1 RES     
    6481 C0         228.9476  -170.0888  -108.7962 C0            1 RES     
    6482 C0         228.3042  -168.7283  -108.4583 C0            1 RES     
    6483 C0         228.8042  -168.0951  -107.1586 C0            1 RES     
    6484 C0         228.3758  -168.8890  -105.9235 C0            1 RES     
    6485 H6         228.8585  -173.2171  -114.6947 H6            1 RES     
    6486 H6         229.0043  -174.9212  -114.7797 H6            1 RES     
    6487 H6         230.3961  -175.2068  -113.0620 H6            1 RES     
    6488 H6         230.9926  -172.3237  -114.0154 H6            1 RES     
    6489 H6         231.2563  -173.8348  -114.9517 H6            1 RES     
    6490 H6         232.9390  -174.5996  -113.2616 H6            1 RES     
    6491 H6         232.7217  -173.0651  -112.3470 H6            1 RES     
    6492 H6         234.7119  -172.8999  -113.6476 H6            1 RES     
    6493 H6         233.5071  -171.6910  -114.1684 H6            1 RES     
    6494 H6         234.7472  -172.6632  -116.0744 H6            1 RES     
    6495 H6         232.9880  -172.9558  -116.2043 H6            1 RES     
    6496 H6         233.2537  -175.3067  -115.4912 H6            1 RES     
    6497 H6         234.2632  -174.9025  -116.9175 H6            1 RES     
    6498 H6         235.2444  -175.0961  -113.9909 H6            1 RES     
    6499 H6         236.2921  -174.6923  -115.3976 H6            1 RES     
    6500 H6         236.4628  -177.0639  -114.6233 H6            1 RES     
    6501 H6         234.7092  -177.3102  -114.9515 H6            1 RES     
    6502 H6         235.1581  -176.8717  -117.4254 H6            1 RES     
    6503 H6         236.8792  -176.5302  -117.0188 H6            1 RES     
    6504 H6         237.1773  -178.8811  -116.2316 H6            1 RES     
    6505 H6         236.6738  -178.7606  -117.9555 H6            1 RES     
    6506 H6         234.8039  -179.4797  -115.6059 H6            1 RES     
    6507 H6         234.3153  -179.2953  -117.3406 H6            1 RES     
    6508 H6         235.4675  -180.5925  -116.8471 H6            1 RES     
    6509 H6         231.1917  -173.9703  -111.2553 H6            1 RES     
    6510 H6         229.6358  -174.4269  -110.9233 H6            1 RES     
    6511 H6         230.6740  -172.0337  -110.3089 H6            1 RES     
    6512 H6         230.1416  -171.5356  -111.9442 H6            1 RES     
    6513 H6         228.4531  -172.7472  -109.5925 H6            1 RES     
    6514 H6         227.7813  -172.2643  -111.1652 H6            1 RES     
    6515 H6         228.3105  -169.9407  -110.8825 H6            1 RES     
    6516 H6         227.1663  -170.6874  -109.7042 H6            1 RES     
    6517 H6         228.7981  -170.8088  -107.9640 H6            1 RES     
    6518 H6         230.0343  -169.9757  -108.9918 H6            1 RES     
    6519 H6         228.5113  -168.0310  -109.2998 H6            1 RES     
    6520 H6         227.1980  -168.8343  -108.3743 H6            1 RES     
    6521 H6         228.3418  -167.0865  -107.0831 H6            1 RES     
    6522 H6         229.9058  -167.9793  -107.1893 H6            1 RES     
    6523 H6         228.8346  -169.8975  -105.9106 H6            1 RES     
    6524 H6         228.6997  -168.3486  -105.0104 H6            1 RES     
    6525 H6         227.2687  -168.9919  -105.8968 H6            1 RES     
    6526 C0         224.1253  -185.2417  -119.8040 C0            1 RES     
    6527 C1         223.9339  -183.7272  -119.5683 C1            1 RES     
    6528 C1         223.2604  -183.1268  -120.5838 C1            1 RES     
    6529 S2         223.1162  -181.4688  -120.4038 S2            1 RES     
    6530 C1         224.0033  -181.4822  -118.9533 C1            1 RES     
    6531 C1         224.4006  -182.7857  -118.6360 C1            1 RES     
    6532 C1         222.9700  -184.0930  -121.5711 C1            1 RES     
    6533 C1         223.5181  -185.2838  -121.2071 C1            1 RES     
    6534 C1         223.3949  -186.2478  -122.2004 C1            1 RES     
    6535 C1         222.6981  -185.7323  -123.3063 C1            1 RES     
    6536 S2         222.2555  -184.1096  -123.0731 S2            1 RES     
    6537 H3         225.0358  -182.9908  -117.7952 H3            1 RES     
    6538 H3         223.7877  -187.2552  -122.1309 H3            1 RES     
    6539 N4         220.9710  -187.3662  -126.2042 N4            1 RES     
    6540 C1         221.1719  -186.7652  -124.9948 C1            1 RES     
    6541 C1         222.4667  -186.4161  -124.5738 C1            1 RES     
    6542 C1         223.5329  -186.6803  -125.4354 C1            1 RES     
    6543 N4         224.8221  -186.3425  -125.1762 N4            1 RES     
    6544 S2         225.5969  -186.8361  -126.5502 S2            1 RES     
    6545 N4         224.3847  -187.4704  -127.4812 N4            1 RES     
    6546 C1         223.2957  -187.2873  -126.6942 C1            1 RES     
    6547 C1         221.9982  -187.6390  -127.0569 C1            1 RES     
    6548 H5         220.3194  -186.5653  -124.3514 H5            1 RES     
    6549 C0         223.3580  -186.2696  -118.8999 C0            1 RES     
    6550 C0         221.8284  -186.6440  -118.8542 C0            1 RES     
    6551 C0         221.6871  -187.6400  -117.6499 C0            1 RES     
    6552 C0         220.2962  -188.2384  -117.4058 C0            1 RES     
    6553 C0         220.2647  -189.1628  -116.1659 C0            1 RES     
    6554 C0         221.1632  -190.4171  -116.2389 C0            1 RES     
    6555 C0         220.9208  -191.3174  -117.4631 C0            1 RES     
    6556 C0         219.4676  -191.8131  -117.5688 C0            1 RES     
    6557 C0         219.2150  -192.6650  -118.8210 C0            1 RES     
    6558 C0         219.9600  -194.0104  -118.7984 C0            1 RES     
    6559 C0         219.6105  -194.9026  -120.0002 C0            1 RES     
    6560 C0         220.0760  -194.3229  -121.3364 C0            1 RES     
    6561 C0         220.7558  -185.5073  -118.8047 C0            1 RES     
    6562 C0         220.6943  -184.5707  -117.5590 C0            1 RES     
    6563 C0         220.9088  -183.1243  -118.0150 C0            1 RES     
    6564 C0         221.2143  -182.0750  -116.9499 C0            1 RES     
    6565 C0         220.0249  -181.5397  -116.1662 C0            1 RES     
    6566 C0         220.5504  -180.4676  -115.1885 C0            1 RES     
    6567 C0         219.4534  -179.6913  -114.4564 C0            1 RES     
    6568 C0         218.6547  -178.7876  -115.3981 C0            1 RES     
    6569 H6         223.5897  -186.0147  -117.8973 H6            1 RES     
    6570 H6         223.8500  -187.2445  -119.1174 H6            1 RES     
    6571 H6         221.6084  -187.1956  -119.7955 H6            1 RES     
    6572 H6         221.9918  -187.1264  -116.7119 H6            1 RES     
    6573 H6         222.3967  -188.4781  -117.8189 H6            1 RES     
    6574 H6         219.9515  -188.7825  -118.3086 H6            1 RES     
    6575 H6         219.5782  -187.4198  -117.1971 H6            1 RES     
    6576 H6         219.2151  -189.4831  -116.0012 H6            1 RES     
    6577 H6         220.5606  -188.5796  -115.2658 H6            1 RES     
    6578 H6         220.9991  -191.0129  -115.3134 H6            1 RES     
    6579 H6         222.2317  -190.1127  -116.2393 H6            1 RES     
    6580 H6         221.1889  -190.7608  -118.3858 H6            1 RES     
    6581 H6         221.6103  -192.1828  -117.3775 H6            1 RES     
    6582 H6         218.7950  -190.9351  -117.6517 H6            1 RES     
    6583 H6         219.1870  -192.3835  -116.6564 H6            1 RES     
    6584 H6         218.1241  -192.8746  -118.8694 H6            1 RES     
    6585 H6         219.4951  -192.0702  -119.7156 H6            1 RES     
    6586 H6         221.0587  -193.8562  -118.7752 H6            1 RES     
    6587 H6         219.6625  -194.5544  -117.8756 H6            1 RES     
    6588 H6         218.5132  -195.0795  -120.0320 H6            1 RES     
    6589 H6         220.1143  -195.8833  -119.8602 H6            1 RES     
    6590 H6         219.5666  -193.3640  -121.5607 H6            1 RES     
    6591 H6         221.1749  -194.1620  -121.3220 H6            1 RES     
    6592 H6         219.8321  -195.0363  -122.1512 H6            1 RES     
    6593 H6         219.7566  -185.9846  -118.8951 H6            1 RES     
    6594 H6         220.8272  -184.9214  -119.7461 H6            1 RES     
    6595 H6         219.6988  -184.6352  -117.0651 H6            1 RES     
    6596 H6         221.4663  -184.8677  -116.8205 H6            1 RES     
    6597 H6         220.1151  -182.7795  -118.7108 H6            1 RES     
    6598 H6         221.8213  -183.1754  -118.5700 H6            1 RES     
    6599 H6         221.9856  -182.4608  -116.2789 H6            1 RES     
    6600 H6         221.6530  -181.2030  -117.4863 H6            1 RES     
    6601 H6         219.3212  -181.0943  -116.9010 H6            1 RES     
    6602 H6         219.5081  -182.3493  -115.6087 H6            1 RES     
    6603 H6         221.1945  -180.9757  -114.4355 H6            1 RES     
    6604 H6         221.1845  -179.7270  -115.7269 H6            1 RES     
    6605 H6         219.9473  -179.0345  -113.7068 H6            1 RES     
    6606 H6         218.7786  -180.3911  -113.9201 H6            1 RES     
    6607 H6         218.0994  -179.3773  -116.1537 H6            1 RES     
    6608 H6         217.9217  -178.1972  -114.8116 H6            1 RES     
    6609 H6         219.3375  -178.0801  -115.9196 H6            1 RES     
    6610 C0         225.6882  -185.4690  -119.7715 C0            1 RES     
    6611 C0         226.4875  -186.2761  -118.6508 C0            1 RES     
    6612 C0         227.9711  -185.7796  -118.7217 C0            1 RES     
    6613 C0         228.9902  -186.6076  -117.9131 C0            1 RES     
    6614 C0         230.4301  -186.0704  -117.9922 C0            1 RES     
    6615 C0         231.0466  -186.0153  -119.4015 C0            1 RES     
    6616 C0         231.0096  -187.3390  -120.1833 C0            1 RES     
    6617 C0         231.7100  -188.4998  -119.4553 C0            1 RES     
    6618 C0         231.6598  -189.8164  -120.2473 C0            1 RES     
    6619 C0         232.4762  -189.7625  -121.5510 C0            1 RES     
    6620 C0         232.5309  -191.1134  -122.2813 C0            1 RES     
    6621 C0         231.1688  -191.5742  -122.8005 C0            1 RES     
    6622 C0         226.0181  -186.4654  -117.1472 C0            1 RES     
    6623 C0         225.9600  -185.2763  -116.1469 C0            1 RES     
    6624 C0         224.5170  -184.8312  -115.8488 C0            1 RES     
    6625 C0         224.3502  -183.6322  -114.9300 C0            1 RES     
    6626 C0         224.6395  -183.8495  -113.4514 C0            1 RES     
    6627 C0         224.2340  -182.5554  -112.7167 C0            1 RES     
    6628 C0         224.3106  -182.6410  -111.1913 C0            1 RES     
    6629 C0         223.2677  -183.5969  -110.6101 C0            1 RES     
    6630 H6         226.1813  -184.4798  -119.9177 H6            1 RES     
    6631 H6         225.9673  -185.9760  -120.7229 H6            1 RES     
    6632 H6         226.4725  -187.3265  -119.0229 H6            1 RES     
    6633 H6         228.0178  -184.7248  -118.3746 H6            1 RES     
    6634 H6         228.2858  -185.8030  -119.7872 H6            1 RES     
    6635 H6         228.9554  -187.6645  -118.2512 H6            1 RES     
    6636 H6         228.7426  -186.5756  -116.8344 H6            1 RES     
    6637 H6         231.0662  -186.7123  -117.3460 H6            1 RES     
    6638 H6         230.4628  -185.0465  -117.5590 H6            1 RES     
    6639 H6         232.1023  -185.6817  -119.2982 H6            1 RES     
    6640 H6         230.5181  -185.2451  -120.0028 H6            1 RES     
    6641 H6         229.9546  -187.6197  -120.3889 H6            1 RES     
    6642 H6         231.5050  -187.1473  -121.1569 H6            1 RES     
    6643 H6         231.1897  -188.6859  -118.4925 H6            1 RES     
    6644 H6         232.7664  -188.2345  -119.2340 H6            1 RES     
    6645 H6         232.0895  -190.6135  -119.6022 H6            1 RES     
    6646 H6         230.5983  -190.0703  -120.4535 H6            1 RES     
    6647 H6         232.0669  -189.0006  -122.2460 H6            1 RES     
    6648 H6         233.5194  -189.4767  -121.2933 H6            1 RES     
    6649 H6         232.9559  -191.8889  -121.6077 H6            1 RES     
    6650 H6         233.2095  -191.0043  -123.1546 H6            1 RES     
    6651 H6         230.4589  -191.7529  -121.9678 H6            1 RES     
    6652 H6         230.7443  -190.8148  -123.4912 H6            1 RES     
    6653 H6         231.2919  -192.5281  -123.3551 H6            1 RES     
    6654 H6         226.7477  -187.1745  -116.7148 H6            1 RES     
    6655 H6         225.1274  -187.1136  -117.0466 H6            1 RES     
    6656 H6         226.3433  -185.6391  -115.1678 H6            1 RES     
    6657 H6         226.6201  -184.4484  -116.4760 H6            1 RES     
    6658 H6         223.9215  -185.6895  -115.4626 H6            1 RES     
    6659 H6         224.0458  -184.4824  -116.7609 H6            1 RES     
    6660 H6         224.9222  -182.7668  -115.3299 H6            1 RES     
    6661 H6         223.2729  -183.4001  -114.9635 H6            1 RES     
    6662 H6         224.0200  -184.7045  -113.1071 H6            1 RES     
    6663 H6         225.7114  -184.0824  -113.2819 H6            1 RES     
    6664 H6         224.9035  -181.7380  -113.0642 H6            1 RES     
    6665 H6         223.1900  -182.2708  -112.9833 H6            1 RES     
    6666 H6         224.0917  -181.6264  -110.7919 H6            1 RES     
    6667 H6         225.3317  -182.9339  -110.8761 H6            1 RES     
    6668 H6         223.4488  -184.6406  -110.9350 H6            1 RES     
    6669 H6         223.3183  -183.5644  -109.5024 H6            1 RES     
    6670 H6         222.2461  -183.2894  -110.9243 H6            1 RES     
    6671 C0         221.2965  -191.3666  -130.9544 C0            1 RES     
    6672 C1         221.3687  -190.0697  -130.1186 C1            1 RES     
    6673 C1         221.2989  -188.9532  -130.8892 C1            1 RES     
    6674 S2         221.4670  -187.5303  -130.0235 S2            1 RES     
    6675 C1         221.6868  -188.3684  -128.5606 C1            1 RES     
    6676 C1         221.6282  -189.7498  -128.7755 C1            1 RES     
    6677 C1         221.2130  -189.3401  -132.2441 C1            1 RES     
    6678 C1         221.2957  -190.6954  -132.3287 C1            1 RES     
    6679 C1         221.3619  -191.1396  -133.6438 C1            1 RES     
    6680 C1         221.2879  -190.0567  -134.5360 C1            1 RES     
    6681 S2         221.1608  -188.5734  -133.7192 S2            1 RES     
    6682 H3         221.8199  -190.4503  -127.9851 H3            1 RES     
    6683 H3         221.4621  -192.1777  -133.9373 H3            1 RES     
    6684 N4         220.5212  -189.8333  -138.1983 N4            1 RES     
    6685 C1         220.3591  -189.8060  -136.8429 C1            1 RES     
    6686 C1         221.4272  -190.1243  -135.9864 C1            1 RES     
    6687 C1         222.6586  -190.4453  -136.5607 C1            1 RES     
    6688 N4         223.7826  -190.7153  -135.8487 N4            1 RES     
    6689 S2         224.9041  -190.9506  -137.0398 S2            1 RES     
    6690 N4         224.0467  -190.7325  -138.4383 N4            1 RES     
    6691 C1         222.8063  -190.4475  -137.9704 C1            1 RES     
    6692 C1         221.7124  -190.1506  -138.7791 C1            1 RES     
    6693 H5         219.3900  -189.5434  -136.4277 H5            1 RES     
    6694 C0         220.0291  -192.2861  -130.8502 C0            1 RES     
    6695 C0         218.5627  -192.0649  -131.3820 C0            1 RES     
    6696 C0         217.7433  -193.2900  -130.8431 C0            1 RES     
    6697 C0         216.2733  -193.3817  -131.2707 C0            1 RES     
    6698 C0         215.5538  -194.5974  -130.6404 C0            1 RES     
    6699 C0         216.1067  -195.9848  -131.0343 C0            1 RES     
    6700 C0         216.1711  -196.2505  -132.5487 C0            1 RES     
    6701 C0         214.8055  -196.1097  -133.2443 C0            1 RES     
    6702 C0         214.8826  -196.3202  -134.7632 C0            1 RES     
    6703 C0         215.2408  -197.7631  -135.1572 C0            1 RES     
    6704 C0         215.2027  -197.9903  -136.6769 C0            1 RES     
    6705 C0         216.2709  -197.1980  -137.4314 C0            1 RES     
    6706 C0         217.8376  -190.7071  -131.1069 C0            1 RES     
    6707 C0         217.5014  -190.3063  -129.6375 C0            1 RES     
    6708 C0         218.1923  -188.9777  -129.3155 C0            1 RES     
    6709 C0         218.2795  -188.5514  -127.8528 C0            1 RES     
    6710 C0         217.0288  -187.9243  -127.2547 C0            1 RES     
    6711 C0         217.3518  -187.5287  -125.7985 C0            1 RES     
    6712 C0         216.2572  -186.7093  -125.1110 C0            1 RES     
    6713 C0         216.1140  -185.3104  -125.7143 C0            1 RES     
    6714 H6         219.8990  -192.4974  -129.8196 H6            1 RES     
    6715 H6         220.3376  -193.2333  -131.3475 H6            1 RES     
    6716 H6         218.6134  -192.1354  -132.4915 H6            1 RES     
    6717 H6         217.7610  -193.2822  -129.7313 H6            1 RES     
    6718 H6         218.2574  -194.2155  -131.1801 H6            1 RES     
    6719 H6         216.1993  -193.4133  -132.3768 H6            1 RES     
    6720 H6         215.7318  -192.4837  -130.9108 H6            1 RES     
    6721 H6         214.4813  -194.5465  -130.9202 H6            1 RES     
    6722 H6         215.5941  -194.5133  -129.5317 H6            1 RES     
    6723 H6         215.4650  -196.7594  -130.5581 H6            1 RES     
    6724 H6         217.1282  -196.1132  -130.6166 H6            1 RES     
    6725 H6         216.8959  -195.5489  -133.0129 H6            1 RES     
    6726 H6         216.5614  -197.2803  -132.6864 H6            1 RES     
    6727 H6         214.4321  -195.0763  -133.0942 H6            1 RES     
    6728 H6         214.0707  -196.8152  -132.7982 H6            1 RES     
    6729 H6         213.8813  -196.0849  -135.1855 H6            1 RES     
    6730 H6         215.6155  -195.5997  -135.1832 H6            1 RES     
    6731 H6         216.2467  -198.0405  -134.7795 H6            1 RES     
    6732 H6         214.4925  -198.4432  -134.6948 H6            1 RES     
    6733 H6         214.1964  -197.7301  -137.0719 H6            1 RES     
    6734 H6         215.3801  -199.0705  -136.8691 H6            1 RES     
    6735 H6         216.1167  -196.1056  -137.3224 H6            1 RES     
    6736 H6         217.2820  -197.4667  -137.0581 H6            1 RES     
    6737 H6         216.2148  -197.4432  -138.5127 H6            1 RES     
    6738 H6         216.8752  -190.7221  -131.6620 H6            1 RES     
    6739 H6         218.4005  -189.9017  -131.6254 H6            1 RES     
    6740 H6         216.4046  -190.1681  -129.5069 H6            1 RES     
    6741 H6         217.8350  -191.1010  -128.9398 H6            1 RES     
    6742 H6         217.8331  -188.1485  -129.9608 H6            1 RES     
    6743 H6         219.2133  -189.1643  -129.5723 H6            1 RES     
    6744 H6         218.6194  -189.3993  -127.2531 H6            1 RES     
    6745 H6         219.0749  -187.7734  -127.8004 H6            1 RES     
    6746 H6         216.7876  -187.0277  -127.8642 H6            1 RES     
    6747 H6         216.1694  -188.6270  -127.2814 H6            1 RES     
    6748 H6         217.5188  -188.4640  -125.2175 H6            1 RES     
    6749 H6         218.2933  -186.9350  -125.7560 H6            1 RES     
    6750 H6         216.5496  -186.5821  -124.0454 H6            1 RES     
    6751 H6         215.2893  -187.2521  -125.1475 H6            1 RES     
    6752 H6         215.7840  -185.3552  -126.7709 H6            1 RES     
    6753 H6         215.3603  -184.7347  -125.1397 H6            1 RES     
    6754 H6         217.0849  -184.7691  -125.6597 H6            1 RES     
    6755 C0         222.6287  -192.1469  -130.6196 C0            1 RES     
    6756 C0         222.7237  -193.5243  -129.8197 C0            1 RES     
    6757 C0         224.1859  -193.6145  -129.2664 C0            1 RES     
    6758 C0         224.5950  -194.9827  -128.6844 C0            1 RES     
    6759 C0         226.0305  -195.0188  -128.1311 C0            1 RES     
    6760 C0         227.1460  -194.7097  -129.1456 C0            1 RES     
    6761 C0         227.1265  -195.5693  -130.4204 C0            1 RES     
    6762 C0         227.2089  -197.0805  -130.1414 C0            1 RES     
    6763 C0         227.1831  -197.9255  -131.4253 C0            1 RES     
    6764 C0         228.4355  -197.7273  -132.2979 C0            1 RES     
    6765 C0         228.4715  -198.6618  -133.5172 C0            1 RES     
    6766 C0         227.3572  -198.3813  -134.5255 C0            1 RES     
    6767 C0         221.6727  -194.0358  -128.7470 C0            1 RES     
    6768 C0         221.4918  -193.3332  -127.3717 C0            1 RES     
    6769 C0         220.1852  -192.5231  -127.2948 C0            1 RES     
    6770 C0         219.9414  -191.7439  -126.0129 C0            1 RES     
    6771 C0         219.5714  -192.5489  -124.7751 C0            1 RES     
    6772 C0         219.2079  -191.5364  -123.6698 C0            1 RES     
    6773 C0         218.6587  -192.1659  -122.3883 C0            1 RES     
    6774 C0         217.2879  -192.8104  -122.5989 C0            1 RES     
    6775 H6         223.3454  -191.4224  -130.1673 H6            1 RES     
    6776 H6         223.1388  -192.3581  -131.5866 H6            1 RES     
    6777 H6         222.6236  -194.2975  -130.6161 H6            1 RES     
    6778 H6         224.3252  -192.8404  -128.4811 H6            1 RES     
    6779 H6         224.8798  -193.3816  -130.1025 H6            1 RES     
    6780 H6         224.4624  -195.7660  -129.4598 H6            1 RES     
    6781 H6         223.9577  -195.2373  -127.8154 H6            1 RES     
    6782 H6         226.2025  -196.0298  -127.7038 H6            1 RES     
    6783 H6         226.1166  -194.2961  -127.2900 H6            1 RES     
    6784 H6         228.1218  -194.8441  -128.6296 H6            1 RES     
    6785 H6         227.0807  -193.6429  -129.4483 H6            1 RES     
    6786 H6         226.2031  -195.3542  -130.9995 H6            1 RES     
    6787 H6         227.9932  -195.2486  -131.0336 H6            1 RES     
    6788 H6         226.3254  -197.3834  -129.5415 H6            1 RES     
    6789 H6         228.1240  -197.3148  -129.5556 H6            1 RES     
    6790 H6         227.1370  -198.9946  -131.1233 H6            1 RES     
    6791 H6         226.2602  -197.6847  -131.9944 H6            1 RES     
    6792 H6         228.5115  -196.6789  -132.6530 H6            1 RES     
    6793 H6         229.3290  -197.9517  -131.6753 H6            1 RES     
    6794 H6         228.4148  -199.7203  -133.1824 H6            1 RES     
    6795 H6         229.4442  -198.5143  -134.0342 H6            1 RES     
    6796 H6         226.3572  -198.5635  -134.0829 H6            1 RES     
    6797 H6         227.4175  -197.3310  -134.8821 H6            1 RES     
    6798 H6         227.4733  -199.0587  -135.3976 H6            1 RES     
    6799 H6         221.9973  -195.0651  -128.5078 H6            1 RES     
    6800 H6         220.6944  -194.3042  -129.1882 H6            1 RES     
    6801 H6         221.3694  -194.1256  -126.6007 H6            1 RES     
    6802 H6         222.3936  -192.7460  -127.1044 H6            1 RES     
    6803 H6         219.3119  -193.1799  -127.5102 H6            1 RES     
    6804 H6         220.1998  -191.7338  -128.0380 H6            1 RES     
    6805 H6         220.8007  -191.0676  -125.8122 H6            1 RES     
    6806 H6         219.0443  -191.1371  -126.2192 H6            1 RES     
    6807 H6         218.6938  -193.1795  -125.0310 H6            1 RES     
    6808 H6         220.4102  -193.2013  -124.4548 H6            1 RES     
    6809 H6         220.1230  -190.9554  -123.4205 H6            1 RES     
    6810 H6         218.4435  -190.8159  -124.0421 H6            1 RES     
    6811 H6         218.5314  -191.3472  -121.6463 H6            1 RES     
    6812 H6         219.3818  -192.9019  -121.9842 H6            1 RES     
    6813 H6         217.3458  -193.6661  -123.3006 H6            1 RES     
    6814 H6         216.9056  -193.1839  -121.6269 H6            1 RES     
    6815 H6         216.5673  -192.0619  -122.9957 H6            1 RES     
    6816 C0         221.7894  -191.7660  -143.9716 C0            1 RES     
    6817 C1         221.8132  -190.9611  -142.6536 C1            1 RES     
    6818 C1         222.3006  -189.7046  -142.8235 C1            1 RES     
    6819 S2         222.4262  -188.8363  -141.3978 S2            1 RES     
    6820 C1         221.8628  -190.1467  -140.4724 C1            1 RES     
    6821 C1         221.5887  -191.2441  -141.2959 C1            1 RES     
    6822 C1         222.6699  -189.5388  -144.1759 C1            1 RES     
    6823 C1         222.4766  -190.7107  -144.8395 C1            1 RES     
    6824 C1         222.9533  -190.6639  -146.1441 C1            1 RES     
    6825 C1         223.4773  -189.3928  -146.4340 C1            1 RES     
    6826 S2         223.3720  -188.3474  -145.1001 S2            1 RES     
    6827 H3         221.2945  -192.1928  -140.8888 H3            1 RES     
    6828 H3         222.9279  -191.4959  -146.8376 H3            1 RES     
    6829 N4         224.2793  -187.6527  -149.6557 N4            1 RES     
    6830 C1         223.6089  -188.0384  -148.5305 C1            1 RES     
    6831 C1         224.1558  -189.0008  -147.6643 C1            1 RES     
    6832 C1         225.4092  -189.5306  -147.9759 C1            1 RES     
    6833 N4         226.0735  -190.4219  -147.1963 N4            1 RES     
    6834 S2         227.4899  -190.6241  -148.0238 S2            1 RES     
    6835 N4         227.3215  -189.6381  -149.3421 N4            1 RES     
    6836 C1         226.0938  -189.0992  -149.1397 C1            1 RES     
    6837 C1         225.5003  -188.1624  -149.9816 C1            1 RES     
    6838 H5         222.6389  -187.6001  -148.3121 H5            1 RES     
    6839 C0         220.4133  -192.1320  -144.6313 C0            1 RES     
    6840 C0         219.3619  -191.2198  -145.3692 C0            1 RES     
    6841 C0         218.1476  -192.1642  -145.6791 C0            1 RES     
    6842 C0         216.9827  -191.5570  -146.4707 C0            1 RES     
    6843 C0         215.8238  -192.5615  -146.6722 C0            1 RES     
    6844 C0         216.1645  -193.8265  -147.4906 C0            1 RES     
    6845 C0         216.7573  -193.5560  -148.8846 C0            1 RES     
    6846 C0         215.8424  -192.6935  -149.7721 C0            1 RES     
    6847 C0         216.4605  -192.3784  -151.1418 C0            1 RES     
    6848 C0         216.6152  -193.6199  -152.0365 C0            1 RES     
    6849 C0         217.1271  -193.2767  -153.4445 C0            1 RES     
    6850 C0         218.5524  -192.7228  -153.4489 C0            1 RES     
    6851 C0         218.9074  -189.8763  -144.7107 C0            1 RES     
    6852 C0         218.1196  -189.9149  -143.3651 C0            1 RES     
    6853 C0         218.9044  -189.1317  -142.3083 C0            1 RES     
    6854 C0         218.5028  -189.3011  -140.8458 C0            1 RES     
    6855 C0         217.2905  -188.5080  -140.3804 C0            1 RES     
    6856 C0         217.0951  -188.7881  -138.8755 C0            1 RES     
    6857 C0         216.0297  -187.9170  -138.2060 C0            1 RES     
    6858 C0         216.4485  -186.4475  -138.1250 C0            1 RES     
    6859 H6         219.8459  -192.6232  -143.8826 H6            1 RES     
    6860 H6         220.6740  -192.8913  -145.4028 H6            1 RES     
    6861 H6         219.8269  -190.9156  -146.3334 H6            1 RES     
    6862 H6         217.7289  -192.5484  -144.7233 H6            1 RES     
    6863 H6         218.5337  -193.0355  -146.2502 H6            1 RES     
    6864 H6         217.3436  -191.1748  -147.4472 H6            1 RES     
    6865 H6         216.5570  -190.7073  -145.8997 H6            1 RES     
    6866 H6         214.9873  -192.0279  -147.1691 H6            1 RES     
    6867 H6         215.4433  -192.8869  -145.6786 H6            1 RES     
    6868 H6         215.2332  -194.4251  -147.6035 H6            1 RES     
    6869 H6         216.8840  -194.4560  -146.9247 H6            1 RES     
    6870 H6         217.7419  -193.0548  -148.7728 H6            1 RES     
    6871 H6         216.9316  -194.5409  -149.3655 H6            1 RES     
    6872 H6         215.6791  -191.7158  -149.2746 H6            1 RES     
    6873 H6         214.8550  -193.1879  -149.9039 H6            1 RES     
    6874 H6         215.7845  -191.6622  -151.6579 H6            1 RES     
    6875 H6         217.4392  -191.8793  -150.9815 H6            1 RES     
    6876 H6         217.3035  -194.3586  -151.5760 H6            1 RES     
    6877 H6         215.6151  -194.0931  -152.1463 H6            1 RES     
    6878 H6         216.4415  -192.5467  -153.9275 H6            1 RES     
    6879 H6         217.1216  -194.2084  -154.0505 H6            1 RES     
    6880 H6         218.6139  -191.7602  -152.9022 H6            1 RES     
    6881 H6         219.2489  -193.4543  -152.9870 H6            1 RES     
    6882 H6         218.8722  -192.5402  -154.4962 H6            1 RES     
    6883 H6         218.2628  -189.3448  -145.4430 H6            1 RES     
    6884 H6         219.7919  -189.2074  -144.6405 H6            1 RES     
    6885 H6         217.1198  -189.4389  -143.4789 H6            1 RES     
    6886 H6         217.9676  -190.9649  -143.0425 H6            1 RES     
    6887 H6         219.0206  -188.0607  -142.5774 H6            1 RES     
    6888 H6         219.8753  -189.5781  -142.3437 H6            1 RES     
    6889 H6         218.3830  -190.3655  -140.6291 H6            1 RES     
    6890 H6         219.3646  -188.9386  -140.2405 H6            1 RES     
    6891 H6         217.5130  -187.4344  -140.5575 H6            1 RES     
    6892 H6         216.3780  -188.7909  -140.9466 H6            1 RES     
    6893 H6         216.8090  -189.8581  -138.7597 H6            1 RES     
    6894 H6         218.0504  -188.6349  -138.3237 H6            1 RES     
    6895 H6         215.9008  -188.2826  -137.1635 H6            1 RES     
    6896 H6         215.0597  -188.0186  -138.7366 H6            1 RES     
    6897 H6         216.5586  -185.9999  -139.1324 H6            1 RES     
    6898 H6         215.6778  -185.8727  -137.5725 H6            1 RES     
    6899 H6         217.4138  -186.3544  -137.5788 H6            1 RES     
    6900 C0         222.6744  -193.0438  -143.6897 C0            1 RES     
    6901 C0         222.1402  -194.5451  -143.6062 C0            1 RES     
    6902 C0         223.2084  -195.3500  -142.7917 C0            1 RES     
    6903 C0         223.0421  -196.8830  -142.8073 C0            1 RES     
    6904 C0         224.0986  -197.6314  -141.9755 C0            1 RES     
    6905 C0         225.5609  -197.4223  -142.4077 C0            1 RES     
    6906 C0         225.8533  -197.7170  -143.8884 C0            1 RES     
    6907 C0         225.4825  -199.1490  -144.3125 C0            1 RES     
    6908 C0         225.7761  -199.4257  -145.7960 C0            1 RES     
    6909 C0         227.2804  -199.4115  -146.1215 C0            1 RES     
    6910 C0         227.5840  -199.8104  -147.5741 C0            1 RES     
    6911 C0         227.0470  -198.8112  -148.5990 C0            1 RES     
    6912 C0         220.6677  -194.9728  -143.1990 C0            1 RES     
    6913 C0         220.1222  -194.7750  -141.7563 C0            1 RES     
    6914 C0         219.1051  -193.6232  -141.6671 C0            1 RES     
    6915 C0         218.5572  -193.3039  -140.2859 C0            1 RES     
    6916 C0         217.5628  -194.2918  -139.6922 C0            1 RES     
    6917 C0         217.0289  -193.6661  -138.3874 C0            1 RES     
    6918 C0         215.8963  -194.4518  -137.7239 C0            1 RES     
    6919 C0         214.6124  -194.4335  -138.5547 C0            1 RES     
    6920 H6         223.2972  -192.8369  -142.7884 H6            1 RES     
    6921 H6         223.4624  -193.0788  -144.4757 H6            1 RES     
    6922 H6         222.1920  -194.9010  -144.6611 H6            1 RES     
    6923 H6         223.1961  -195.0038  -141.7357 H6            1 RES     
    6924 H6         224.2076  -195.1139  -143.2170 H6            1 RES     
    6925 H6         223.0545  -197.2430  -143.8575 H6            1 RES     
    6926 H6         222.0759  -197.1699  -142.3491 H6            1 RES     
    6927 H6         223.8605  -198.7155  -142.0236 H6            1 RES     
    6928 H6         224.0055  -197.3294  -140.9091 H6            1 RES     
    6929 H6         226.1999  -198.0743  -141.7727 H6            1 RES     
    6930 H6         225.8578  -196.3721  -142.2002 H6            1 RES     
    6931 H6         225.3038  -196.9926  -144.5269 H6            1 RES     
    6932 H6         226.9387  -197.5454  -144.0385 H6            1 RES     
    6933 H6         224.3913  -199.2944  -144.1701 H6            1 RES     
    6934 H6         226.0177  -199.8892  -143.6792 H6            1 RES     
    6935 H6         225.3796  -200.4366  -146.0343 H6            1 RES     
    6936 H6         225.2288  -198.6827  -146.4142 H6            1 RES     
    6937 H6         227.7199  -198.4110  -145.9299 H6            1 RES     
    6938 H6         227.7840  -200.1480  -145.4580 H6            1 RES     
    6939 H6         227.1674  -200.8198  -147.7825 H6            1 RES     
    6940 H6         228.6878  -199.8605  -147.6928 H6            1 RES     
    6941 H6         225.9402  -198.7553  -148.5665 H6            1 RES     
    6942 H6         227.4734  -197.8027  -148.4119 H6            1 RES     
    6943 H6         227.3427  -199.1374  -149.6182 H6            1 RES     
    6944 H6         220.6356  -196.0636  -143.3756 H6            1 RES     
    6945 H6         219.9080  -194.6937  -143.9531 H6            1 RES     
    6946 H6         219.5349  -195.6813  -141.4898 H6            1 RES     
    6947 H6         220.9525  -194.6906  -141.0263 H6            1 RES     
    6948 H6         218.2645  -193.7961  -142.3769 H6            1 RES     
    6949 H6         219.5846  -192.6897  -141.9397 H6            1 RES     
    6950 H6         219.3953  -193.1040  -139.5835 H6            1 RES     
    6951 H6         217.9716  -192.3798  -140.4226 H6            1 RES     
    6952 H6         216.7400  -194.4265  -140.4257 H6            1 RES     
    6953 H6         218.0414  -195.2735  -139.4942 H6            1 RES     
    6954 H6         217.8767  -193.5857  -137.6720 H6            1 RES     
    6955 H6         216.6522  -192.6349  -138.5793 H6            1 RES     
    6956 H6         215.6729  -193.9546  -136.7545 H6            1 RES     
    6957 H6         216.2202  -195.4922  -137.5228 H6            1 RES     
    6958 H6         214.7498  -194.9513  -139.5247 H6            1 RES     
    6959 H6         213.8070  -194.9522  -137.9954 H6            1 RES     
    6960 H6         214.2906  -193.3858  -138.7433 H6            1 RES     
    6961 C0         227.2486  -187.7907  -155.1181 C0            1 RES     
    6962 C1         226.9310  -187.5598  -153.6243 C1            1 RES     
    6963 C1         227.7112  -186.5942  -153.0728 C1            1 RES     
    6964 S2         227.4562  -186.3832  -151.4318 S2            1 RES     
    6965 C1         226.2998  -187.6286  -151.3837 C1            1 RES     
    6966 C1         226.1352  -188.1915  -152.6541 C1            1 RES     
    6967 C1         228.6082  -186.1187  -154.0537 C1            1 RES     
    6968 C1         228.4364  -186.8308  -155.2002 C1            1 RES     
    6969 C1         229.3842  -186.5139  -156.1659 C1            1 RES     
    6970 C1         230.2473  -185.5077  -155.7004 C1            1 RES     
    6971 S2         229.8615  -185.0272  -154.1181 S2            1 RES     
    6972 H3         225.5026  -189.0440  -152.8134 H3            1 RES     
    6973 H3         229.4493  -186.9836  -157.1400 H3            1 RES     
    6974 N4         232.6129  -183.1844  -157.4488 N4            1 RES     
    6975 C1         231.4875  -183.6609  -156.8401 C1            1 RES     
    6976 C1         231.4226  -184.9922  -156.3937 C1            1 RES     
    6977 C1         232.5465  -185.8013  -156.5702 C1            1 RES     
    6978 N4         232.6361  -187.0842  -156.1347 N4            1 RES     
    6979 S2         234.1805  -187.4917  -156.5599 S2            1 RES     
    6980 N4         234.7659  -186.1224  -157.2816 N4            1 RES     
    6981 C1         233.7099  -185.2771  -157.1874 C1            1 RES     
    6982 C1         233.7179  -183.9592  -157.6369 C1            1 RES     
    6983 H5         230.6330  -183.0025  -156.7101 H5            1 RES     
    6984 C0         226.1978  -187.3746  -156.2070 C0            1 RES     
    6985 C0         225.7508  -185.9464  -156.6991 C0            1 RES     
    6986 C0         224.5792  -186.2101  -157.7091 C0            1 RES     
    6987 C0         223.9844  -184.9852  -158.4147 C0            1 RES     
    6988 C0         222.8063  -185.3587  -159.3449 C0            1 RES     
    6989 C0         223.1513  -186.2932  -160.5254 C0            1 RES     
    6990 C0         224.2875  -185.7947  -161.4357 C0            1 RES     
    6991 C0         224.0100  -184.4076  -162.0420 C0            1 RES     
    6992 C0         225.1691  -183.8883  -162.9047 C0            1 RES     
    6993 C0         225.3832  -184.7081  -164.1883 C0            1 RES     
    6994 C0         226.4686  -184.1124  -165.0989 C0            1 RES     
    6995 C0         227.8655  -184.1545  -164.4782 C0            1 RES     
    6996 C0         225.3844  -184.8470  -155.6492 C0            1 RES     
    6997 C0         224.1446  -185.0569  -154.7265 C0            1 RES     
    6998 C0         224.6040  -185.0332  -153.2655 C0            1 RES     
    6999 C0         223.6342  -185.5381  -152.2010 C0            1 RES     
    7000 C0         222.5450  -184.5697  -151.7635 C0            1 RES     
    7001 C0         221.7181  -185.2605  -150.6588 C0            1 RES     
    7002 C0         220.6973  -184.3491  -149.9735 C0            1 RES     
    7003 C0         221.3649  -183.2612  -149.1298 C0            1 RES     
    7004 H6         225.2887  -187.8500  -155.9399 H6            1 RES     
    7005 H6         226.5651  -187.8593  -157.1396 H6            1 RES     
    7006 H6         226.6117  -185.5206  -157.2613 H6            1 RES     
    7007 H6         223.7452  -186.7191  -157.1780 H6            1 RES     
    7008 H6         224.9549  -186.9068  -158.4887 H6            1 RES     
    7009 H6         224.7744  -184.4496  -158.9794 H6            1 RES     
    7010 H6         223.5686  -184.2926  -157.6552 H6            1 RES     
    7011 H6         222.3728  -184.4195  -159.7465 H6            1 RES     
    7012 H6         222.0047  -185.8439  -158.7451 H6            1 RES     
    7013 H6         222.2316  -186.4301  -161.1368 H6            1 RES     
    7014 H6         223.4321  -187.2963  -160.1391 H6            1 RES     
    7015 H6         225.2336  -185.7612  -160.8553 H6            1 RES     
    7016 H6         224.4135  -186.5431  -162.2454 H6            1 RES     
    7017 H6         223.8856  -183.6753  -161.2185 H6            1 RES     
    7018 H6         223.0707  -184.4275  -162.6370 H6            1 RES     
    7019 H6         224.9267  -182.8436  -163.1979 H6            1 RES     
    7020 H6         226.0905  -183.8711  -162.2855 H6            1 RES     
    7021 H6         225.6533  -185.7576  -163.9495 H6            1 RES     
    7022 H6         224.4286  -184.7125  -164.7584 H6            1 RES     
    7023 H6         226.2078  -183.0636  -165.3602 H6            1 RES     
    7024 H6         226.4951  -184.7057  -166.0383 H6            1 RES     
    7025 H6         227.9192  -183.5346  -163.5606 H6            1 RES     
    7026 H6         228.1440  -185.2013  -164.2327 H6            1 RES     
    7027 H6         228.6024  -183.7519  -165.2043 H6            1 RES     
    7028 H6         225.2141  -183.8984  -156.2021 H6            1 RES     
    7029 H6         226.2946  -184.6174  -155.0548 H6            1 RES     
    7030 H6         223.4022  -184.2401  -154.8704 H6            1 RES     
    7031 H6         223.6496  -186.0198  -154.9664 H6            1 RES     
    7032 H6         225.0507  -184.0576  -152.9798 H6            1 RES     
    7033 H6         225.3858  -185.7624  -153.2429 H6            1 RES     
    7034 H6         223.2064  -186.4886  -152.5292 H6            1 RES     
    7035 H6         224.2463  -185.7500  -151.2949 H6            1 RES     
    7036 H6         223.0510  -183.6626  -151.3704 H6            1 RES     
    7037 H6         221.8899  -184.2842  -152.6135 H6            1 RES     
    7038 H6         221.1801  -186.1200  -151.1192 H6            1 RES     
    7039 H6         222.3883  -185.6690  -149.8685 H6            1 RES     
    7040 H6         220.0921  -184.9782  -149.2842 H6            1 RES     
    7041 H6         220.0170  -183.8981  -150.7263 H6            1 RES     
    7042 H6         221.9576  -182.5666  -149.7570 H6            1 RES     
    7043 H6         220.5874  -182.6733  -148.6010 H6            1 RES     
    7044 H6         222.0329  -183.7233  -148.3689 H6            1 RES     
    7045 C0         227.6449  -189.3163  -155.2237 C0            1 RES     
    7046 C0         226.8026  -190.4463  -155.9720 C0            1 RES     
    7047 C0         227.2584  -191.8146  -155.3616 C0            1 RES     
    7048 C0         226.7764  -193.0725  -156.1121 C0            1 RES     
    7049 C0         227.2273  -194.3937  -155.4645 C0            1 RES     
    7050 C0         228.7486  -194.5994  -155.3547 C0            1 RES     
    7051 C0         229.5254  -194.4491  -156.6733 C0            1 RES     
    7052 C0         229.0436  -195.4037  -157.7800 C0            1 RES     
    7053 C0         229.8264  -195.2373  -159.0925 C0            1 RES     
    7054 C0         231.3002  -195.6636  -158.9689 C0            1 RES     
    7055 C0         232.0527  -195.6172  -160.3079 C0            1 RES     
    7056 C0         232.1969  -194.2030  -160.8703 C0            1 RES     
    7057 C0         225.2336  -190.4171  -156.2047 C0            1 RES     
    7058 C0         224.2243  -190.5453  -155.0287 C0            1 RES     
    7059 C0         223.5365  -189.2085  -154.6983 C0            1 RES     
    7060 C0         222.5761  -189.2095  -153.5204 C0            1 RES     
    7061 C0         221.2366  -189.9038  -153.7221 C0            1 RES     
    7062 C0         220.3866  -189.6189  -152.4670 C0            1 RES     
    7063 C0         218.9412  -190.1121  -152.5540 C0            1 RES     
    7064 C0         218.1250  -189.3387  -153.5908 C0            1 RES     
    7065 H6         227.8931  -189.6774  -154.1986 H6            1 RES     
    7066 H6         228.6490  -189.3634  -155.7027 H6            1 RES     
    7067 H6         227.1839  -190.4080  -157.0185 H6            1 RES     
    7068 H6         226.9097  -191.8762  -154.3081 H6            1 RES     
    7069 H6         228.3695  -191.8296  -155.3552 H6            1 RES     
    7070 H6         227.1197  -193.0250  -157.1668 H6            1 RES     
    7071 H6         225.6704  -193.1248  -156.1048 H6            1 RES     
    7072 H6         226.7934  -195.2264  -156.0584 H6            1 RES     
    7073 H6         226.7927  -194.4675  -154.4434 H6            1 RES     
    7074 H6         228.9254  -195.6162  -154.9408 H6            1 RES     
    7075 H6         229.1649  -193.8727  -154.6248 H6            1 RES     
    7076 H6         229.4459  -193.4013  -157.0340 H6            1 RES     
    7077 H6         230.5912  -194.6466  -156.4389 H6            1 RES     
    7078 H6         227.9813  -195.1788  -158.0106 H6            1 RES     
    7079 H6         229.1088  -196.4581  -157.4347 H6            1 RES     
    7080 H6         229.3420  -195.8830  -159.8571 H6            1 RES     
    7081 H6         229.7450  -194.1813  -159.4270 H6            1 RES     
    7082 H6         231.8390  -195.0266  -158.2377 H6            1 RES     
    7083 H6         231.3263  -196.7138  -158.6045 H6            1 RES     
    7084 H6         231.5391  -196.2645  -161.0515 H6            1 RES     
    7085 H6         233.0737  -196.0239  -160.1422 H6            1 RES     
    7086 H6         231.2085  -193.7604  -161.1077 H6            1 RES     
    7087 H6         232.7276  -193.5527  -160.1426 H6            1 RES     
    7088 H6         232.7886  -194.2407  -161.8090 H6            1 RES     
    7089 H6         225.0325  -191.2865  -156.8571 H6            1 RES     
    7090 H6         224.9131  -189.6370  -156.9205 H6            1 RES     
    7091 H6         223.3947  -191.2051  -155.3656 H6            1 RES     
    7092 H6         224.6978  -191.0290  -154.1504 H6            1 RES     
    7093 H6         223.0263  -188.8045  -155.6021 H6            1 RES     
    7094 H6         224.2784  -188.4835  -154.3825 H6            1 RES     
    7095 H6         223.0931  -189.5867  -152.6114 H6            1 RES     
    7096 H6         222.3118  -188.1494  -153.3725 H6            1 RES     
    7097 H6         220.7601  -189.4652  -154.6242 H6            1 RES     
    7098 H6         221.3687  -190.9956  -153.8720 H6            1 RES     
    7099 H6         220.8806  -190.1074  -151.5984 H6            1 RES     
    7100 H6         220.3541  -188.5238  -152.2629 H6            1 RES     
    7101 H6         218.4715  -189.9359  -151.5614 H6            1 RES     
    7102 H6         218.9209  -191.1990  -152.7684 H6            1 RES     
    7103 H6         218.5136  -189.5009  -154.6157 H6            1 RES     
    7104 H6         217.0716  -189.6850  -153.5600 H6            1 RES     
    7105 H6         218.1439  -188.2505  -153.3619 H6            1 RES     
    7106 C0         237.3765  -182.5027  -161.3881 C0            1 RES     
    7107 C1         236.5579  -182.7034  -160.0937 C1            1 RES     
    7108 C1         237.2520  -182.3458  -158.9821 C1            1 RES     
    7109 S2         236.4273  -182.6374  -157.5548 S2            1 RES     
    7110 C1         235.1001  -183.3063  -158.3807 C1            1 RES     
    7111 C1         235.3269  -183.2930  -159.7613 C1            1 RES     
    7112 C1         238.5430  -181.9245  -159.3677 C1            1 RES     
    7113 C1         238.6817  -182.0803  -160.7121 C1            1 RES     
    7114 C1         239.9770  -181.8199  -161.1432 C1            1 RES     
    7115 C1         240.7878  -181.4278  -160.0648 C1            1 RES     
    7116 S2         239.9290  -181.4185  -158.6000 S2            1 RES     
    7117 H3         234.6358  -183.7426  -160.4488 H3            1 RES     
    7118 H3         240.3133  -181.9127  -162.1690 H3            1 RES     
    7119 N4         244.1004  -179.6830  -159.8833 N4            1 RES     
    7120 C1         242.7513  -179.8928  -159.8754 C1            1 RES     
    7121 C1         242.2233  -181.1734  -160.1142 C1            1 RES     
    7122 C1         243.1165  -182.2231  -160.3358 C1            1 RES     
    7123 N4         242.7415  -183.5147  -160.5215 N4            1 RES     
    7124 S2         244.1967  -184.2854  -160.6631 S2            1 RES     
    7125 N4         245.3058  -183.0676  -160.5052 N4            1 RES     
    7126 C1         244.5134  -181.9830  -160.3195 C1            1 RES     
    7127 C1         244.9890  -180.6921  -160.1043 C1            1 RES     
    7128 H5         242.0834  -179.0559  -159.6908 H5            1 RES     
    7129 C0         236.9578  -181.3819  -162.4036 C0            1 RES     
    7130 C0         237.0684  -179.8141  -162.2941 C0            1 RES     
    7131 C0         236.3603  -179.2636  -163.5817 C0            1 RES     
    7132 C0         236.3775  -177.7435  -163.7850 C0            1 RES     
    7133 C0         235.6080  -177.3129  -165.0559 C0            1 RES     
    7134 C0         236.1722  -177.8385  -166.3944 C0            1 RES     
    7135 C0         237.6541  -177.5093  -166.6467 C0            1 RES     
    7136 C0         237.9516  -175.9998  -166.6087 C0            1 RES     
    7137 C0         239.4399  -175.6775  -166.8050 C0            1 RES     
    7138 C0         239.9531  -176.0203  -168.2138 C0            1 RES     
    7139 C0         241.4114  -175.5885  -168.4357 C0            1 RES     
    7140 C0         242.4055  -176.3513  -167.5591 C0            1 RES     
    7141 C0         236.5729  -179.0932  -160.9980 C0            1 RES     
    7142 C0         235.0575  -179.1394  -160.6318 C0            1 RES     
    7143 C0         234.8996  -179.7924  -159.2553 C0            1 RES     
    7144 C0         233.5042  -180.2413  -158.8308 C0            1 RES     
    7145 C0         232.5748  -179.1570  -158.3056 C0            1 RES     
    7146 C0         231.2501  -179.8327  -157.8934 C0            1 RES     
    7147 C0         230.2718  -178.9084  -157.1648 C0            1 RES     
    7148 C0         230.7778  -178.5049  -155.7783 C0            1 RES     
    7149 H6         235.9362  -181.5518  -162.6295 H6            1 RES     
    7150 H6         237.5443  -181.6127  -163.3215 H6            1 RES     
    7151 H6         238.1518  -179.5673  -162.3549 H6            1 RES     
    7152 H6         235.2946  -179.5813  -163.5781 H6            1 RES     
    7153 H6         236.8473  -179.7335  -164.4629 H6            1 RES     
    7154 H6         237.4230  -177.3750  -163.8168 H6            1 RES     
    7155 H6         235.8618  -177.2555  -162.9335 H6            1 RES     
    7156 H6         235.5867  -176.2039  -165.0870 H6            1 RES     
    7157 H6         234.5496  -177.6458  -164.9745 H6            1 RES     
    7158 H6         235.5607  -177.4084  -167.2188 H6            1 RES     
    7159 H6         236.0491  -178.9414  -166.4452 H6            1 RES     
    7160 H6         238.2785  -178.0277  -165.8886 H6            1 RES     
    7161 H6         237.9186  -177.9221  -167.6424 H6            1 RES     
    7162 H6         237.6797  -175.6063  -165.6081 H6            1 RES     
    7163 H6         237.3422  -175.4671  -167.3712 H6            1 RES     
    7164 H6         239.5701  -174.5849  -166.6459 H6            1 RES     
    7165 H6         240.0233  -176.2143  -166.0277 H6            1 RES     
    7166 H6         239.8680  -177.1085  -168.4142 H6            1 RES     
    7167 H6         239.3236  -175.4773  -168.9521 H6            1 RES     
    7168 H6         241.5134  -174.4966  -168.2523 H6            1 RES     
    7169 H6         241.6722  -175.7859  -169.4978 H6            1 RES     
    7170 H6         242.2307  -176.1527  -166.4825 H6            1 RES     
    7171 H6         242.3259  -177.4425  -167.7505 H6            1 RES     
    7172 H6         243.4375  -176.0224  -167.8026 H6            1 RES     
    7173 H6         236.8479  -178.0203  -161.0848 H6            1 RES     
    7174 H6         237.2031  -179.4339  -160.1488 H6            1 RES     
    7175 H6         234.6322  -178.1120  -160.5797 H6            1 RES     
    7176 H6         234.4964  -179.7069  -161.4018 H6            1 RES     
    7177 H6         235.4024  -179.2120  -158.4533 H6            1 RES     
    7178 H6         235.4271  -180.7164  -159.3608 H6            1 RES     
    7179 H6         233.0406  -180.7921  -159.6528 H6            1 RES     
    7180 H6         233.6483  -180.9619  -157.9938 H6            1 RES     
    7181 H6         233.0732  -178.6946  -157.4273 H6            1 RES     
    7182 H6         232.3868  -178.3764  -159.0727 H6            1 RES     
    7183 H6         230.7600  -180.2189  -158.8159 H6            1 RES     
    7184 H6         231.4478  -180.7043  -157.2288 H6            1 RES     
    7185 H6         229.3218  -179.4685  -157.0207 H6            1 RES     
    7186 H6         230.0598  -178.0093  -157.7808 H6            1 RES     
    7187 H6         231.7070  -177.9051  -155.8432 H6            1 RES     
    7188 H6         230.0065  -177.8950  -155.2656 H6            1 RES     
    7189 H6         230.9732  -179.4119  -155.1636 H6            1 RES     
    7190 C0         237.4337  -183.9292  -162.0643 C0            1 RES     
    7191 C0         236.7250  -184.3381  -163.4343 C0            1 RES     
    7192 C0         236.5892  -185.8981  -163.4135 C0            1 RES     
    7193 C0         236.1747  -186.5487  -164.7488 C0            1 RES     
    7194 C0         236.0304  -188.0791  -164.6762 C0            1 RES     
    7195 C0         237.2999  -188.8521  -164.2766 C0            1 RES     
    7196 C0         238.5440  -188.5509  -165.1287 C0            1 RES     
    7197 C0         238.3367  -188.8164  -166.6302 C0            1 RES     
    7198 C0         239.5874  -188.5057  -167.4683 C0            1 RES     
    7199 C0         240.7601  -189.4566  -167.1692 C0            1 RES     
    7200 C0         241.9676  -189.2293  -168.0920 C0            1 RES     
    7201 C0         242.6303  -187.8659  -167.8937 C0            1 RES     
    7202 C0         235.4221  -183.6576  -164.0311 C0            1 RES     
    7203 C0         234.0313  -183.8052  -163.3515 C0            1 RES     
    7204 C0         233.5838  -182.5126  -162.6456 C0            1 RES     
    7205 C0         232.2641  -182.5689  -161.8940 C0            1 RES     
    7206 C0         230.9935  -182.6083  -162.7315 C0            1 RES     
    7207 C0         229.8054  -182.4847  -161.7558 C0            1 RES     
    7208 C0         228.4399  -182.3511  -162.4323 C0            1 RES     
    7209 C0         228.2894  -181.0255  -163.1801 C0            1 RES     
    7210 H6         237.1730  -184.6866  -161.2888 H6            1 RES     
    7211 H6         238.5076  -184.1722  -162.2305 H6            1 RES     
    7212 H6         237.4845  -184.0829  -164.2089 H6            1 RES     
    7213 H6         235.8509  -186.1879  -162.6349 H6            1 RES     
    7214 H6         237.5753  -186.3204  -163.1233 H6            1 RES     
    7215 H6         236.9056  -186.2688  -165.5361 H6            1 RES     
    7216 H6         235.1730  -186.1913  -165.0564 H6            1 RES     
    7217 H6         235.6917  -188.4341  -165.6730 H6            1 RES     
    7218 H6         235.2254  -188.3367  -163.9532 H6            1 RES     
    7219 H6         237.0701  -189.9384  -164.3374 H6            1 RES     
    7220 H6         237.5462  -188.6293  -163.2164 H6            1 RES     
    7221 H6         238.8467  -187.4920  -164.9829 H6            1 RES     
    7222 H6         239.3598  -189.1931  -164.7386 H6            1 RES     
    7223 H6         237.5287  -188.1532  -167.0038 H6            1 RES     
    7224 H6         238.0258  -189.8706  -166.7959 H6            1 RES     
    7225 H6         239.3119  -188.6216  -168.5392 H6            1 RES     
    7226 H6         239.8799  -187.4479  -167.2970 H6            1 RES     
    7227 H6         241.0953  -189.3565  -166.1163 H6            1 RES     
    7228 H6         240.4077  -190.4994  -167.3268 H6            1 RES     
    7229 H6         241.6574  -189.3431  -169.1534 H6            1 RES     
    7230 H6         242.7239  -190.0119  -167.8669 H6            1 RES     
    7231 H6         241.9391  -187.0395  -168.1551 H6            1 RES     
    7232 H6         242.9626  -187.7502  -166.8401 H6            1 RES     
    7233 H6         243.5185  -187.7907  -168.5557 H6            1 RES     
    7234 H6         235.3060  -184.1094  -165.0333 H6            1 RES     
    7235 H6         235.5897  -182.6188  -164.3723 H6            1 RES     
    7236 H6         233.2766  -183.9548  -164.1548 H6            1 RES     
    7237 H6         234.0022  -184.7002  -162.6975 H6            1 RES     
    7238 H6         233.5725  -181.6642  -163.3670 H6            1 RES     
    7239 H6         234.2828  -182.2674  -161.8538 H6            1 RES     
    7240 H6         232.2852  -183.3985  -161.1542 H6            1 RES     
    7241 H6         232.2049  -181.6075  -161.3576 H6            1 RES     
    7242 H6         231.0193  -181.7429  -163.4269 H6            1 RES     
    7243 H6         230.9283  -183.5480  -163.3185 H6            1 RES     
    7244 H6         229.7973  -183.3880  -161.1068 H6            1 RES     
    7245 H6         229.9389  -181.5974  -161.0948 H6            1 RES     
    7246 H6         227.6702  -182.3700  -161.6297 H6            1 RES     
    7247 H6         228.2650  -183.2085  -163.1121 H6            1 RES     
    7248 H6         229.0025  -180.9537  -164.0252 H6            1 RES     
    7249 H6         227.2602  -180.9494  -163.5870 H6            1 RES     
    7250 H6         228.4575  -180.1715  -162.4878 H6            1 RES     
    7251 C0         250.0496  -179.4772  -161.6828 C0            1 RES     
    7252 C1         248.7665  -179.7983  -160.8851 C1            1 RES     
    7253 C1         249.0293  -180.1280  -159.5938 C1            1 RES     
    7254 S2         247.6683  -180.5713  -158.7256 S2            1 RES     
    7255 C1         246.6594  -180.3773  -160.0803 C1            1 RES     
    7256 C1         247.4065  -179.9715  -161.1915 C1            1 RES     
    7257 C1         250.4264  -180.1037  -159.3932 C1            1 RES     
    7258 C1         251.0432  -179.8242  -160.5731 C1            1 RES     
    7259 C1         252.4263  -179.9248  -160.4830 C1            1 RES     
    7260 C1         252.8140  -180.2560  -159.1737 C1            1 RES     
    7261 S2         251.4746  -180.4398  -158.1462 S2            1 RES     
    7262 H3         246.9597  -179.8690  -162.1622 H3            1 RES     
    7263 H3         253.1085  -179.7735  -161.3110 H3            1 RES     
    7264 N4         256.0865  -180.0251  -157.3605 N4            1 RES     
    7265 C1         254.8325  -179.7148  -157.8026 C1            1 RES     
    7266 C1         254.1712  -180.5450  -158.7241 C1            1 RES     
    7267 C1         254.8230  -181.7024  -159.1535 C1            1 RES     
    7268 N4         254.2748  -182.6166  -159.9945 N4            1 RES     
    7269 S2         255.4588  -183.7666  -160.0821 S2            1 RES     
    7270 N4         256.6568  -183.1755  -159.1056 N4            1 RES     
    7271 C1         256.1168  -182.0124  -158.6645 C1            1 RES     
    7272 C1         256.7429  -181.1460  -157.7723 C1            1 RES     
    7273 H5         254.3493  -178.8110  -157.4419 H5            1 RES     
    7274 C0         250.3227  -178.0045  -162.1511 C0            1 RES     
    7275 C0         250.7257  -176.7286  -161.3196 C0            1 RES     
    7276 C0         250.7208  -175.5484  -162.3537 C0            1 RES     
    7277 C0         251.1528  -174.1713  -161.8347 C0            1 RES     
    7278 C0         251.0599  -173.0780  -162.9251 C0            1 RES     
    7279 C0         251.9723  -173.2759  -164.1557 C0            1 RES     
    7280 C0         253.4672  -173.4473  -163.8330 C0            1 RES     
    7281 C0         254.0523  -172.2654  -163.0397 C0            1 RES     
    7282 C0         255.5294  -172.4644  -162.6708 C0            1 RES     
    7283 C0         256.4643  -172.4614  -163.8920 C0            1 RES     
    7284 C0         257.9489  -172.5459  -163.5032 C0            1 RES     
    7285 C0         258.3234  -173.8721  -162.8403 C0            1 RES     
    7286 C0         249.9346  -176.3724  -160.0187 C0            1 RES     
    7287 C0         248.4278  -175.9838  -160.1250 C0            1 RES     
    7288 C0         247.6021  -176.9659  -159.2886 C0            1 RES     
    7289 C0         246.0904  -176.9893  -159.4960 C0            1 RES     
    7290 C0         245.2948  -175.8937  -158.8015 C0            1 RES     
    7291 C0         243.8008  -176.1346  -159.1035 C0            1 RES     
    7292 C0         242.8464  -175.2297  -158.3209 C0            1 RES     
    7293 C0         242.8434  -175.5459  -156.8238 C0            1 RES     
    7294 H6         249.4616  -177.6989  -162.6886 H6            1 RES     
    7295 H6         251.1553  -178.1014  -162.8841 H6            1 RES     
    7296 H6         251.7715  -176.8913  -160.9754 H6            1 RES     
    7297 H6         249.6977  -175.4336  -162.7740 H6            1 RES     
    7298 H6         251.3972  -175.8280  -163.1896 H6            1 RES     
    7299 H6         252.1802  -174.2250  -161.4208 H6            1 RES     
    7300 H6         250.4664  -173.8552  -161.0235 H6            1 RES     
    7301 H6         251.2988  -172.1014  -162.4555 H6            1 RES     
    7302 H6         250.0093  -173.0059  -163.2840 H6            1 RES     
    7303 H6         251.8452  -172.3953  -164.8242 H6            1 RES     
    7304 H6         251.6380  -174.1660  -164.7303 H6            1 RES     
    7305 H6         253.6122  -174.3859  -163.2577 H6            1 RES     
    7306 H6         254.0025  -173.5564  -164.7991 H6            1 RES     
    7307 H6         253.5041  -172.1718  -162.0801 H6            1 RES     
    7308 H6         253.9254  -171.3182  -163.6085 H6            1 RES     
    7309 H6         255.8252  -171.6232  -162.0066 H6            1 RES     
    7310 H6         255.6263  -173.4106  -162.0980 H6            1 RES     
    7311 H6         256.2259  -173.3009  -164.5774 H6            1 RES     
    7312 H6         256.3124  -171.5064  -164.4408 H6            1 RES     
    7313 H6         258.2099  -171.7035  -162.8261 H6            1 RES     
    7314 H6         258.5547  -172.4448  -164.4294 H6            1 RES     
    7315 H6         257.7890  -174.0088  -161.8787 H6            1 RES     
    7316 H6         258.0856  -174.7194  -163.5180 H6            1 RES     
    7317 H6         259.4131  -173.8819  -162.6283 H6            1 RES     
    7318 H6         250.4519  -175.5163  -159.5351 H6            1 RES     
    7319 H6         250.0885  -177.1912  -159.2836 H6            1 RES     
    7320 H6         248.2554  -174.9585  -159.7274 H6            1 RES     
    7321 H6         248.1034  -176.0022  -161.1852 H6            1 RES     
    7322 H6         247.8649  -176.9261  -158.2105 H6            1 RES     
    7323 H6         247.9097  -177.9210  -159.6582 H6            1 RES     
    7324 H6         245.8770  -177.0110  -160.5674 H6            1 RES     
    7325 H6         245.7310  -177.9539  -159.0707 H6            1 RES     
    7326 H6         245.4976  -175.9806  -157.7130 H6            1 RES     
    7327 H6         245.6009  -174.8853  -159.1516 H6            1 RES     
    7328 H6         243.6397  -175.9698  -160.1930 H6            1 RES     
    7329 H6         243.5234  -177.1898  -158.8794 H6            1 RES     
    7330 H6         241.8176  -175.4153  -158.7007 H6            1 RES     
    7331 H6         243.0981  -174.1623  -158.4948 H6            1 RES     
    7332 H6         243.8313  -175.3457  -156.3641 H6            1 RES     
    7333 H6         242.0888  -174.9137  -156.3133 H6            1 RES     
    7334 H6         242.5757  -176.6135  -156.6590 H6            1 RES     
    7335 C0         250.0500  -180.4967  -162.8896 C0            1 RES     
    7336 C0         249.8643  -180.1166  -164.4282 C0            1 RES     
    7337 C0         249.3893  -181.4216  -165.1519 C0            1 RES     
    7338 C0         249.3991  -181.3701  -166.6931 C0            1 RES     
    7339 C0         248.9027  -182.6644  -167.3615 C0            1 RES     
    7340 C0         249.7079  -183.9354  -167.0375 C0            1 RES     
    7341 C0         251.2197  -183.8364  -167.3011 C0            1 RES     
    7342 C0         251.5649  -183.4706  -168.7555 C0            1 RES     
    7343 C0         253.0791  -183.3706  -169.0011 C0            1 RES     
    7344 C0         253.7980  -184.7251  -168.8687 C0            1 RES     
    7345 C0         255.2884  -184.6520  -169.2356 C0            1 RES     
    7346 C0         256.1043  -183.7857  -168.2760 C0            1 RES     
    7347 C0         249.0861  -178.8451  -164.9708 C0            1 RES     
    7348 C0         247.5451  -178.6980  -164.8232 C0            1 RES     
    7349 C0         247.1550  -177.6615  -163.7541 C0            1 RES     
    7350 C0         245.6695  -177.4866  -163.4852 C0            1 RES     
    7351 C0         244.8552  -176.7655  -164.5502 C0            1 RES     
    7352 C0         243.4390  -176.5608  -163.9743 C0            1 RES     
    7353 C0         242.5150  -175.7112  -164.8488 C0            1 RES     
    7354 C0         242.9678  -174.2524  -164.9260 C0            1 RES     
    7355 H6         249.3452  -181.3236  -162.6396 H6            1 RES     
    7356 H6         251.0201  -181.0426  -162.8594 H6            1 RES     
    7357 H6         250.9028  -179.9065  -164.7737 H6            1 RES     
    7358 H6         248.3605  -181.6707  -164.8130 H6            1 RES     
    7359 H6         250.0622  -182.2480  -164.8369 H6            1 RES     
    7360 H6         250.4225  -181.1238  -167.0458 H6            1 RES     
    7361 H6         248.7046  -180.5880  -167.0563 H6            1 RES     
    7362 H6         248.9127  -182.5023  -168.4605 H6            1 RES     
    7363 H6         247.8433  -182.8419  -167.0730 H6            1 RES     
    7364 H6         249.2859  -184.7686  -167.6411 H6            1 RES     
    7365 H6         249.5612  -184.1997  -165.9685 H6            1 RES     
    7366 H6         251.6673  -183.0829  -166.6184 H6            1 RES     
    7367 H6         251.6526  -184.8249  -167.0451 H6            1 RES     
    7368 H6         251.1371  -182.4725  -168.9858 H6            1 RES     
    7369 H6         251.1188  -184.2101  -169.4551 H6            1 RES     
    7370 H6         253.2277  -182.9995  -170.0386 H6            1 RES     
    7371 H6         253.5074  -182.6233  -168.2998 H6            1 RES     
    7372 H6         253.7063  -185.1255  -167.8381 H6            1 RES     
    7373 H6         253.3142  -185.4423  -169.5673 H6            1 RES     
    7374 H6         255.4027  -184.2697  -170.2732 H6            1 RES     
    7375 H6         255.7018  -185.6830  -169.1994 H6            1 RES     
    7376 H6         255.7729  -182.7281  -168.3062 H6            1 RES     
    7377 H6         256.0132  -184.1717  -167.2384 H6            1 RES     
    7378 H6         257.1736  -183.8172  -168.5731 H6            1 RES     
    7379 H6         249.2756  -178.8463  -166.0599 H6            1 RES     
    7380 H6         249.5998  -177.8911  -164.7477 H6            1 RES     
    7381 H6         247.1535  -178.2730  -165.7736 H6            1 RES     
    7382 H6         247.0643  -179.6866  -164.6783 H6            1 RES     
    7383 H6         247.6160  -176.6751  -163.9882 H6            1 RES     
    7384 H6         247.5227  -177.9795  -162.7849 H6            1 RES     
    7385 H6         245.2143  -178.4667  -163.2244 H6            1 RES     
    7386 H6         245.6192  -176.8198  -162.6087 H6            1 RES     
    7387 H6         245.3427  -175.7869  -164.7447 H6            1 RES     
    7388 H6         244.8191  -177.3504  -165.4928 H6            1 RES     
    7389 H6         242.9770  -177.5626  -163.8320 H6            1 RES     
    7390 H6         243.4955  -176.0717  -162.9745 H6            1 RES     
    7391 H6         241.5088  -175.7231  -164.3752 H6            1 RES     
    7392 H6         242.4358  -176.1528  -165.8620 H6            1 RES     
    7393 H6         243.9520  -174.1594  -165.4267 H6            1 RES     
    7394 H6         242.2256  -173.6690  -165.5083 H6            1 RES     
    7395 H6         243.0355  -173.8157  -163.9054 H6            1 RES     
    7396 C0         262.1492  -181.4047  -157.2405 C0            1 RES     
    7397 C1         260.6196  -181.4878  -157.0424 C1            1 RES     
    7398 C1         260.2744  -182.3153  -156.0220 C1            1 RES     
    7399 S2         258.6206  -182.4999  -155.8396 S2            1 RES     
    7400 C1         258.2944  -181.4943  -157.1712 C1            1 RES     
    7401 C1         259.4873  -181.0332  -157.7388 C1            1 RES     
    7402 C1         261.4483  -182.8756  -155.4735 C1            1 RES     
    7403 C1         262.5239  -182.4522  -156.1909 C1            1 RES     
    7404 C1         263.7010  -183.0769  -155.7968 C1            1 RES     
    7405 C1         263.4599  -183.9577  -154.7289 C1            1 RES     
    7406 S2         261.8204  -183.9811  -154.2877 S2            1 RES     
    7407 H3         259.4921  -180.4454  -158.6369 H3            1 RES     
    7408 H3         264.6684  -182.9098  -156.2551 H3            1 RES     
    7409 N4         265.7211  -185.5841  -152.2205 N4            1 RES     
    7410 C1         264.8439  -184.7038  -152.7859 C1            1 RES     
    7411 C1         264.4311  -184.8601  -154.1204 C1            1 RES     
    7412 C1         264.9251  -185.9502  -154.8391 C1            1 RES     
    7413 N4         264.5632  -186.2483  -156.1133 N4            1 RES     
    7414 S2         265.3997  -187.6452  -156.3976 S2            1 RES     
    7415 N4         266.2169  -187.9111  -154.9835 N4            1 RES     
    7416 C1         265.8196  -186.8611  -154.2231 C1            1 RES     
    7417 C1         266.2203  -186.6505  -152.9064 C1            1 RES     
    7418 H5         264.4712  -183.8707  -152.1963 H5            1 RES     
    7419 C0         262.9030  -180.0706  -156.9017 C0            1 RES     
    7420 C0         263.2192  -179.4036  -155.5100 C0            1 RES     
    7421 C0         263.8821  -178.0247  -155.8587 C0            1 RES     
    7422 C0         264.3692  -177.1728  -154.6801 C0            1 RES     
    7423 C0         264.9564  -175.8173  -155.1391 C0            1 RES     
    7424 C0         266.2098  -175.8971  -156.0382 C0            1 RES     
    7425 C0         267.3798  -176.7043  -155.4486 C0            1 RES     
    7426 C0         267.8527  -176.1720  -154.0842 C0            1 RES     
    7427 C0         268.9825  -177.0126  -153.4722 C0            1 RES     
    7428 C0         270.2970  -176.9303  -154.2665 C0            1 RES     
    7429 C0         271.4510  -177.6817  -153.5838 C0            1 RES     
    7430 C0         271.2314  -179.1936  -153.5206 C0            1 RES     
    7431 C0         262.0814  -179.2559  -154.4476 C0            1 RES     
    7432 C0         260.8641  -178.3313  -154.7576 C0            1 RES     
    7433 C0         259.5812  -179.1665  -154.7057 C0            1 RES     
    7434 C0         258.3079  -178.5611  -155.2896 C0            1 RES     
    7435 C0         257.5679  -177.5633  -154.4108 C0            1 RES     
    7436 C0         256.2992  -177.1197  -155.1691 C0            1 RES     
    7437 C0         255.3407  -176.2589  -154.3431 C0            1 RES     
    7438 C0         254.6805  -177.0486  -153.2109 C0            1 RES     
    7439 H6         262.4130  -179.3053  -157.4475 H6            1 RES     
    7440 H6         263.9124  -180.2059  -157.3518 H6            1 RES     
    7441 H6         263.9818  -180.0463  -155.0159 H6            1 RES     
    7442 H6         263.1591  -177.4055  -156.4335 H6            1 RES     
    7443 H6         264.7519  -178.2251  -156.5203 H6            1 RES     
    7444 H6         265.1121  -177.7387  -154.0820 H6            1 RES     
    7445 H6         263.5081  -176.9288  -154.0257 H6            1 RES     
    7446 H6         265.2017  -175.2236  -154.2344 H6            1 RES     
    7447 H6         264.1752  -175.2461  -155.6881 H6            1 RES     
    7448 H6         266.5538  -174.8587  -156.2430 H6            1 RES     
    7449 H6         265.9397  -176.3448  -157.0184 H6            1 RES     
    7450 H6         267.0756  -177.7672  -155.3447 H6            1 RES     
    7451 H6         268.2125  -176.6607  -156.1809 H6            1 RES     
    7452 H6         267.0075  -176.2221  -153.3678 H6            1 RES     
    7453 H6         268.1725  -175.1107  -154.1738 H6            1 RES     
    7454 H6         269.1724  -176.6240  -152.4479 H6            1 RES     
    7455 H6         268.6346  -178.0635  -153.3867 H6            1 RES     
    7456 H6         270.1671  -177.3312  -155.2930 H6            1 RES     
    7457 H6         270.5882  -175.8599  -154.3421 H6            1 RES     
    7458 H6         271.6050  -177.2836  -152.5571 H6            1 RES     
    7459 H6         272.3777  -177.4960  -154.1686 H6            1 RES     
    7460 H6         270.3467  -179.4484  -152.9030 H6            1 RES     
    7461 H6         271.0973  -179.6042  -154.5439 H6            1 RES     
    7462 H6         272.1188  -179.6746  -153.0584 H6            1 RES     
    7463 H6         262.5431  -178.8730  -153.5123 H6            1 RES     
    7464 H6         261.7490  -180.2737  -154.1511 H6            1 RES     
    7465 H6         260.7813  -177.5199  -154.0001 H6            1 RES     
    7466 H6         260.9864  -177.8618  -155.7548 H6            1 RES     
    7467 H6         259.4016  -179.6011  -153.6999 H6            1 RES     
    7468 H6         259.7892  -179.9764  -155.3721 H6            1 RES     
    7469 H6         258.5329  -178.1312  -156.2687 H6            1 RES     
    7470 H6         257.6064  -179.4098  -155.4579 H6            1 RES     
    7471 H6         257.3026  -178.0891  -153.4691 H6            1 RES     
    7472 H6         258.2019  -176.6833  -154.1726 H6            1 RES     
    7473 H6         256.6194  -176.5416  -156.0655 H6            1 RES     
    7474 H6         255.7299  -178.0071  -155.5283 H6            1 RES     
    7475 H6         254.5301  -175.9110  -155.0207 H6            1 RES     
    7476 H6         255.8700  -175.3689  -153.9424 H6            1 RES     
    7477 H6         255.4263  -177.3966  -152.4693 H6            1 RES     
    7478 H6         253.9466  -176.4026  -152.6877 H6            1 RES     
    7479 H6         254.1403  -177.9298  -153.6236 H6            1 RES     
    7480 C0         262.3972  -181.8683  -158.7302 C0            1 RES     
    7481 C0         262.9193  -180.9399  -159.9184 C0            1 RES     
    7482 C0         262.4901  -181.6430  -161.2502 C0            1 RES     
    7483 C0         263.1150  -181.0692  -162.5380 C0            1 RES     
    7484 C0         262.6474  -181.7743  -163.8235 C0            1 RES     
    7485 C0         262.9575  -183.2793  -163.9111 C0            1 RES     
    7486 C0         264.4324  -183.6564  -163.6944 C0            1 RES     
    7487 C0         265.3923  -182.9640  -164.6779 C0            1 RES     
    7488 C0         266.8627  -183.3475  -164.4448 C0            1 RES     
    7489 C0         267.1524  -184.8267  -164.7562 C0            1 RES     
    7490 C0         268.6430  -185.1828  -164.6448 C0            1 RES     
    7491 C0         269.1868  -185.0651  -163.2209 C0            1 RES     
    7492 C0         262.7192  -179.3688  -160.0098 C0            1 RES     
    7493 C0         261.3182  -178.7282  -160.2217 C0            1 RES     
    7494 C0         260.7802  -178.0596  -158.9439 C0            1 RES     
    7495 C0         259.3872  -177.4572  -159.0253 C0            1 RES     
    7496 C0         259.2379  -176.1678  -159.8204 C0            1 RES     
    7497 C0         257.7930  -175.6712  -159.6085 C0            1 RES     
    7498 C0         257.4995  -174.2964  -160.2119 C0            1 RES     
    7499 C0         258.2573  -173.1754  -159.4989 C0            1 RES     
    7500 H6         261.4867  -182.4108  -159.0761 H6            1 RES     
    7501 H6         263.1304  -182.7057  -158.6969 H6            1 RES     
    7502 H6         264.0286  -181.0194  -159.8454 H6            1 RES     
    7503 H6         261.3836  -181.5984  -161.3440 H6            1 RES     
    7504 H6         262.7841  -182.7123  -161.1791 H6            1 RES     
    7505 H6         264.2216  -181.1094  -162.4587 H6            1 RES     
    7506 H6         262.8109  -180.0135  -162.6760 H6            1 RES     
    7507 H6         263.1235  -181.2580  -164.6843 H6            1 RES     
    7508 H6         261.5491  -181.6393  -163.9358 H6            1 RES     
    7509 H6         262.6330  -183.6357  -164.9132 H6            1 RES     
    7510 H6         262.3485  -183.8234  -163.1580 H6            1 RES     
    7511 H6         264.7311  -183.4056  -162.6541 H6            1 RES     
    7512 H6         264.4995  -184.7575  -163.8098 H6            1 RES     
    7513 H6         265.3219  -181.8655  -164.5350 H6            1 RES     
    7514 H6         265.1048  -183.1975  -165.7259 H6            1 RES     
    7515 H6         267.4846  -182.7227  -165.1223 H6            1 RES     
    7516 H6         267.1354  -183.1013  -163.3966 H6            1 RES     
    7517 H6         266.5774  -185.4954  -164.0829 H6            1 RES     
    7518 H6         266.8357  -185.0275  -165.8030 H6            1 RES     
    7519 H6         269.2369  -184.5357  -165.3263 H6            1 RES     
    7520 H6         268.7695  -186.2374  -164.9719 H6            1 RES     
    7521 H6         269.1371  -184.0197  -162.8551 H6            1 RES     
    7522 H6         268.6128  -185.7240  -162.5350 H6            1 RES     
    7523 H6         270.2510  -185.3813  -163.2079 H6            1 RES     
    7524 H6         263.3155  -179.0627  -160.8889 H6            1 RES     
    7525 H6         263.3016  -178.8100  -159.2533 H6            1 RES     
    7526 H6         261.4357  -177.8890  -160.9422 H6            1 RES     
    7527 H6         260.6131  -179.4561  -160.6716 H6            1 RES     
    7528 H6         261.5020  -177.2954  -158.5762 H6            1 RES     
    7529 H6         260.6576  -178.8041  -158.1652 H6            1 RES     
    7530 H6         258.6614  -178.2273  -159.3658 H6            1 RES     
    7531 H6         259.1461  -177.1659  -157.9897 H6            1 RES     
    7532 H6         259.9663  -175.4338  -159.4155 H6            1 RES     
    7533 H6         259.4459  -176.3339  -160.8979 H6            1 RES     
    7534 H6         257.1028  -176.4165  -160.0616 H6            1 RES     
    7535 H6         257.5595  -175.6151  -158.5203 H6            1 RES     
    7536 H6         256.4128  -174.1018  -160.0776 H6            1 RES     
    7537 H6         257.7285  -174.2985  -161.2960 H6            1 RES     
    7538 H6         259.3529  -173.2825  -159.6254 H6            1 RES     
    7539 H6         257.9524  -172.1981  -159.9260 H6            1 RES     
    7540 H6         258.0140  -173.1758  -158.4137 H6            1 RES     
    7541 C0         270.7807  -189.0385  -151.1518 C0            1 RES     
    7542 C1         269.3191  -188.6184  -151.4218 C1            1 RES     
    7543 C1         268.4272  -189.5596  -151.0170 C1            1 RES     
    7544 S2         266.8383  -189.1762  -151.3789 S2            1 RES     
    7545 C1         267.2924  -187.7276  -152.1445 C1            1 RES     
    7546 C1         268.6822  -187.5701  -152.1068 C1            1 RES     
    7547 C1         269.1358  -190.6633  -150.4950 C1            1 RES     
    7548 C1         270.4713  -190.4435  -150.6328 C1            1 RES     
    7549 C1         271.2290  -191.5507  -150.2706 C1            1 RES     
    7550 C1         270.3997  -192.5925  -149.8222 C1            1 RES     
    7551 S2         268.7577  -192.1645  -149.8868 S2            1 RES     
    7552 H3         269.1691  -186.7535  -152.6051 H3            1 RES     
    7553 H3         272.3095  -191.6023  -150.3319 H3            1 RES     
    7554 N4         271.0737  -195.6932  -147.8267 N4            1 RES     
    7555 C1         270.7075  -194.4159  -148.1406 C1            1 RES     
    7556 C1         270.8280  -193.9382  -149.4570 C1            1 RES     
    7557 C1         271.3094  -194.8124  -150.4332 C1            1 RES     
    7558 N4         271.4203  -194.4968  -151.7490 N4            1 RES     
    7559 S2         271.9691  -195.9116  -152.4039 S2            1 RES     
    7560 N4         272.0849  -196.9297  -151.1045 N4            1 RES     
    7561 C1         271.6644  -196.1400  -150.0856 C1            1 RES     
    7562 C1         271.5522  -196.5601  -148.7628 C1            1 RES     
    7563 H5         270.3280  -193.7634  -147.3589 H5            1 RES     
    7564 C0         271.6163  -188.2794  -150.0617 C0            1 RES     
    7565 C0         271.5003  -188.3002  -148.4907 C0            1 RES     
    7566 C0         272.5343  -187.2313  -147.9902 C0            1 RES     
    7567 C0         272.6954  -187.0814  -146.4724 C0            1 RES     
    7568 C0         273.7001  -185.9668  -146.0964 C0            1 RES     
    7569 C0         275.1542  -186.1841  -146.5700 C0            1 RES     
    7570 C0         275.7884  -187.5139  -146.1257 C0            1 RES     
    7571 C0         275.7931  -187.6991  -144.5978 C0            1 RES     
    7572 C0         276.3754  -189.0507  -144.1601 C0            1 RES     
    7573 C0         277.8787  -189.1866  -144.4550 C0            1 RES     
    7574 C0         278.4746  -190.4945  -143.9104 C0            1 RES     
    7575 C0         277.9188  -191.7420  -144.5981 C0            1 RES     
    7576 C0         270.1004  -188.1231  -147.8168 C0            1 RES     
    7577 C0         269.3402  -186.7712  -147.9822 C0            1 RES     
    7578 C0         267.9895  -187.0406  -148.6524 C0            1 RES     
    7579 C0         267.2159  -185.8493  -149.2103 C0            1 RES     
    7580 C0         266.4316  -185.0201  -148.2039 C0            1 RES     
    7581 C0         265.6949  -183.9099  -148.9824 C0            1 RES     
    7582 C0         264.7057  -183.1007  -148.1404 C0            1 RES     
    7583 C0         263.4972  -183.9325  -147.7058 C0            1 RES     
    7584 H6         271.5625  -187.2500  -150.3092 H6            1 RES     
    7585 H6         272.6640  -188.6104  -150.2417 H6            1 RES     
    7586 H6         271.8447  -189.3055  -148.1603 H6            1 RES     
    7587 H6         272.2516  -186.2328  -148.3896 H6            1 RES     
    7588 H6         273.5261  -187.4943  -148.4166 H6            1 RES     
    7589 H6         272.9986  -188.0492  -146.0238 H6            1 RES     
    7590 H6         271.7240  -186.7814  -146.0301 H6            1 RES     
    7591 H6         273.6956  -185.8566  -144.9923 H6            1 RES     
    7592 H6         273.3447  -184.9974  -146.5108 H6            1 RES     
    7593 H6         275.7716  -185.3423  -146.1845 H6            1 RES     
    7594 H6         275.1984  -186.1330  -147.6789 H6            1 RES     
    7595 H6         275.2406  -188.3566  -146.5978 H6            1 RES     
    7596 H6         276.8288  -187.5281  -146.5116 H6            1 RES     
    7597 H6         274.7465  -187.6805  -144.2316 H6            1 RES     
    7598 H6         276.3489  -186.8685  -144.1101 H6            1 RES     
    7599 H6         276.2291  -189.1387  -143.0615 H6            1 RES     
    7600 H6         275.7985  -189.8607  -144.6539 H6            1 RES     
    7601 H6         278.0768  -189.1304  -145.5455 H6            1 RES     
    7602 H6         278.4056  -188.3425  -143.9588 H6            1 RES     
    7603 H6         278.2975  -190.5621  -142.8147 H6            1 RES     
    7604 H6         279.5725  -190.4714  -144.0816 H6            1 RES     
    7605 H6         276.8302  -191.8515  -144.4191 H6            1 RES     
    7606 H6         278.1097  -191.6937  -145.6913 H6            1 RES     
    7607 H6         278.4231  -192.6424  -144.1890 H6            1 RES     
    7608 H6         270.2304  -188.2849  -146.7254 H6            1 RES     
    7609 H6         269.4617  -188.9830  -148.1119 H6            1 RES     
    7610 H6         269.1487  -186.3019  -146.9912 H6            1 RES     
    7611 H6         269.9446  -186.0657  -148.5877 H6            1 RES     
    7612 H6         267.3381  -187.6981  -148.0388 H6            1 RES     
    7613 H6         268.2572  -187.5860  -149.5322 H6            1 RES     
    7614 H6         267.8963  -185.2219  -149.7913 H6            1 RES     
    7615 H6         266.4677  -186.2672  -149.9217 H6            1 RES     
    7616 H6         265.7088  -185.7027  -147.7087 H6            1 RES     
    7617 H6         267.0991  -184.5745  -147.4364 H6            1 RES     
    7618 H6         266.4605  -183.2179  -149.4008 H6            1 RES     
    7619 H6         265.1310  -184.3437  -149.8394 H6            1 RES     
    7620 H6         264.3251  -182.2690  -148.7731 H6            1 RES     
    7621 H6         265.2183  -182.6644  -147.2573 H6            1 RES     
    7622 H6         263.7949  -184.7628  -147.0355 H6            1 RES     
    7623 H6         262.7799  -183.2865  -147.1601 H6            1 RES     
    7624 H6         262.9816  -184.3531  -148.5980 H6            1 RES     
    7625 C0         271.4839  -189.0147  -152.5662 C0            1 RES     
    7626 C0         272.6219  -187.9932  -153.0219 C0            1 RES     
    7627 C0         272.6056  -187.9829  -154.5878 C0            1 RES     
    7628 C0         273.7958  -187.2708  -155.2619 C0            1 RES     
    7629 C0         273.7265  -187.2642  -156.7992 C0            1 RES     
    7630 C0         273.7043  -188.6476  -157.4735 C0            1 RES     
    7631 C0         274.8524  -189.5886  -157.0725 C0            1 RES     
    7632 C0         276.2487  -189.0021  -157.3457 C0            1 RES     
    7633 C0         277.3849  -189.9526  -156.9347 C0            1 RES     
    7634 C0         277.4379  -191.2290  -157.7933 C0            1 RES     
    7635 C0         278.6461  -192.1212  -157.4684 C0            1 RES     
    7636 C0         278.5988  -192.7110  -156.0588 C0            1 RES     
    7637 C0         272.8272  -186.5311  -152.4415 C0            1 RES     
    7638 C0         271.8016  -185.3912  -152.6999 C0            1 RES     
    7639 C0         270.9680  -185.0583  -151.4495 C0            1 RES     
    7640 C0         269.8899  -183.9994  -151.6117 C0            1 RES     
    7641 C0         270.3542  -182.5559  -151.7453 C0            1 RES     
    7642 C0         269.0913  -181.6709  -151.7190 C0            1 RES     
    7643 C0         269.3706  -180.1672  -151.6884 C0            1 RES     
    7644 C0         270.0156  -179.7230  -150.3747 C0            1 RES     
    7645 H6         270.6866  -189.0302  -153.3453 H6            1 RES     
    7646 H6         271.9399  -190.0182  -152.7243 H6            1 RES     
    7647 H6         273.5659  -188.4935  -152.7047 H6            1 RES     
    7648 H6         271.6644  -187.5065  -154.9378 H6            1 RES     
    7649 H6         272.6032  -189.0389  -154.9338 H6            1 RES     
    7650 H6         274.7436  -187.7384  -154.9222 H6            1 RES     
    7651 H6         273.8123  -186.1998  -154.9817 H6            1 RES     
    7652 H6         274.6037  -186.6949  -157.1744 H6            1 RES     
    7653 H6         272.8200  -186.7064  -157.1221 H6            1 RES     
    7654 H6         273.7289  -188.4901  -158.5740 H6            1 RES     
    7655 H6         272.7446  -189.1549  -157.2375 H6            1 RES     
    7656 H6         274.7665  -189.8411  -155.9939 H6            1 RES     
    7657 H6         274.7137  -190.5244  -157.6514 H6            1 RES     
    7658 H6         276.3731  -188.0768  -156.7453 H6            1 RES     
    7659 H6         276.3514  -188.7361  -158.4200 H6            1 RES     
    7660 H6         278.3443  -189.4065  -157.0663 H6            1 RES     
    7661 H6         277.2715  -190.2023  -155.8584 H6            1 RES     
    7662 H6         276.5123  -191.8287  -157.6729 H6            1 RES     
    7663 H6         277.5214  -190.9245  -158.8595 H6            1 RES     
    7664 H6         279.5870  -191.5441  -157.6007 H6            1 RES     
    7665 H6         278.6537  -192.9654  -158.1912 H6            1 RES     
    7666 H6         278.6426  -191.9162  -155.2871 H6            1 RES     
    7667 H6         277.6714  -193.3070  -155.9229 H6            1 RES     
    7668 H6         279.4737  -193.3786  -155.9116 H6            1 RES     
    7669 H6         273.7722  -186.1812  -152.8959 H6            1 RES     
    7670 H6         273.1741  -186.5233  -151.3911 H6            1 RES     
    7671 H6         272.3751  -184.4602  -152.9035 H6            1 RES     
    7672 H6         271.1873  -185.6061  -153.5977 H6            1 RES     
    7673 H6         271.6374  -184.7897  -150.6009 H6            1 RES     
    7674 H6         270.3881  -185.9258  -151.1547 H6            1 RES     
    7675 H6         269.2049  -184.2811  -152.4408 H6            1 RES     
    7676 H6         269.3328  -184.0175  -150.6605 H6            1 RES     
    7677 H6         271.0082  -182.3287  -150.8770 H6            1 RES     
    7678 H6         270.9260  -182.4032  -152.6843 H6            1 RES     
    7679 H6         268.4878  -181.9053  -152.6235 H6            1 RES     
    7680 H6         268.4682  -181.9132  -150.8274 H6            1 RES     
    7681 H6         268.3909  -179.6473  -151.7709 H6            1 RES     
    7682 H6         269.9999  -179.8780  -152.5533 H6            1 RES     
    7683 H6         271.0196  -180.1731  -150.2436 H6            1 RES     
    7684 H6         270.1276  -178.6193  -150.3766 H6            1 RES     
    7685 H6         269.3725  -180.0094  -149.5137 H6            1 RES     
    7686 C0         274.4058  -200.9004  -147.1513 C0            1 RES     
    7687 C1         273.3000  -199.9086  -147.5748 C1            1 RES     
    7688 C1         272.1365  -200.5349  -147.8896 C1            1 RES     
    7689 S2         270.9450  -199.4965  -148.4414 S2            1 RES     
    7690 C1         271.9717  -198.1467  -148.3195 C1            1 RES     
    7691 C1         273.2325  -198.5329  -147.8515 C1            1 RES     
    7692 C1         272.3197  -201.9284  -147.7581 C1            1 RES     
    7693 C1         273.6147  -202.1802  -147.4257 C1            1 RES     
    7694 C1         273.9037  -203.5395  -147.4192 C1            1 RES     
    7695 C1         272.7566  -204.2906  -147.7259 C1            1 RES     
    7696 S2         271.4109  -203.2970  -148.0181 S2            1 RES     
    7697 H3         274.0436  -197.8335  -147.7791 H3            1 RES     
    7698 H3         274.8809  -203.9587  -147.2113 H3            1 RES     
    7699 N4         271.8884  -207.9060  -147.2510 N4            1 RES     
    7700 C1         271.9675  -206.5599  -147.0367 C1            1 RES     
    7701 C1         272.6975  -205.7362  -147.9111 C1            1 RES     
    7702 C1         273.3166  -206.3303  -149.0123 C1            1 RES     
    7703 N4         274.0018  -205.6433  -149.9619 N4            1 RES     
    7704 S2         274.4353  -206.8401  -151.0162 S2            1 RES     
    7705 N4         273.8033  -208.2113  -150.3389 N4            1 RES     
    7706 C1         273.2030  -207.7274  -149.2234 C1            1 RES     
    7707 C1         272.4908  -208.5065  -148.3155 C1            1 RES     
    7708 H5         271.4666  -206.1276  -146.1748 H5            1 RES     
    7709 C0         274.8922  -200.9276  -145.6595 C0            1 RES     
    7710 C0         274.1676  -201.4463  -144.3603 C0            1 RES     
    7711 C0         275.1312  -201.0748  -143.1789 C0            1 RES     
    7712 C0         274.7127  -201.5291  -141.7750 C0            1 RES     
    7713 C0         275.7090  -201.0644  -140.6868 C0            1 RES     
    7714 C0         277.1447  -201.6210  -140.8072 C0            1 RES     
    7715 C0         277.2420  -203.1558  -140.8638 C0            1 RES     
    7716 C0         276.6057  -203.8457  -139.6440 C0            1 RES     
    7717 C0         276.6542  -205.3780  -139.7297 C0            1 RES     
    7718 C0         278.0820  -205.9442  -139.6481 C0            1 RES     
    7719 C0         278.1104  -207.4806  -139.6193 C0            1 RES     
    7720 C0         277.6077  -208.1169  -140.9157 C0            1 RES     
    7721 C0         272.6928  -201.0134  -144.0731 C0            1 RES     
    7722 C0         272.3785  -199.5099  -143.8019 C0            1 RES     
    7723 C0         271.3760  -199.0161  -144.8493 C0            1 RES     
    7724 C0         271.1683  -197.5107  -144.9888 C0            1 RES     
    7725 C0         270.2569  -196.8550  -143.9617 C0            1 RES     
    7726 C0         270.1506  -195.3569  -144.3162 C0            1 RES     
    7727 C0         269.1165  -194.5866  -143.4919 C0            1 RES     
    7728 C0         267.6828  -195.0127  -143.8149 C0            1 RES     
    7729 H6         275.1694  -199.9331  -145.4189 H6            1 RES     
    7730 H6         275.8249  -201.5352  -145.6878 H6            1 RES     
    7731 H6         274.1227  -202.5552  -144.4431 H6            1 RES     
    7732 H6         275.2568  -199.9705  -143.1417 H6            1 RES     
    7733 H6         276.1256  -201.5179  -143.4011 H6            1 RES     
    7734 H6         274.5929  -202.6313  -141.7510 H6            1 RES     
    7735 H6         273.7384  -201.0670  -141.5172 H6            1 RES     
    7736 H6         275.2961  -201.3493  -139.6970 H6            1 RES     
    7737 H6         275.7691  -199.9535  -140.6946 H6            1 RES     
    7738 H6         277.7312  -201.2533  -139.9358 H6            1 RES     
    7739 H6         277.6307  -201.2097  -141.7177 H6            1 RES     
    7740 H6         276.7515  -203.5198  -141.7911 H6            1 RES     
    7741 H6         278.3191  -203.4158  -140.9262 H6            1 RES     
    7742 H6         275.5317  -203.5728  -139.5981 H6            1 RES     
    7743 H6         277.0945  -203.5005  -138.7068 H6            1 RES     
    7744 H6         276.0731  -205.7803  -138.8715 H6            1 RES     
    7745 H6         276.1535  -205.6956  -140.6684 H6            1 RES     
    7746 H6         278.6991  -205.5911  -140.5002 H6            1 RES     
    7747 H6         278.5446  -205.5796  -138.7051 H6            1 RES     
    7748 H6         277.5074  -207.8529  -138.7625 H6            1 RES     
    7749 H6         279.1628  -207.8037  -139.4668 H6            1 RES     
    7750 H6         276.5414  -207.8746  -141.0982 H6            1 RES     
    7751 H6         278.2177  -207.7671  -141.7755 H6            1 RES     
    7752 H6         277.6979  -209.2209  -140.8420 H6            1 RES     
    7753 H6         272.3447  -201.5782  -143.1819 H6            1 RES     
    7754 H6         272.0479  -201.4203  -144.8812 H6            1 RES     
    7755 H6         271.9227  -199.3770  -142.7951 H6            1 RES     
    7756 H6         273.3120  -198.9125  -143.8402 H6            1 RES     
    7757 H6         270.4081  -199.5576  -144.7947 H6            1 RES     
    7758 H6         271.8394  -199.2811  -145.7758 H6            1 RES     
    7759 H6         272.1426  -197.0171  -145.0217 H6            1 RES     
    7760 H6         270.6869  -197.3517  -145.9805 H6            1 RES     
    7761 H6         269.2661  -197.3510  -144.0380 H6            1 RES     
    7762 H6         270.6504  -196.9800  -142.9308 H6            1 RES     
    7763 H6         271.1517  -194.8949  -144.1589 H6            1 RES     
    7764 H6         269.8874  -195.2287  -145.3909 H6            1 RES     
    7765 H6         269.2092  -193.5099  -143.7548 H6            1 RES     
    7766 H6         269.3242  -194.7028  -142.4074 H6            1 RES     
    7767 H6         267.5016  -196.0707  -143.5410 H6            1 RES     
    7768 H6         266.9715  -194.3805  -143.2457 H6            1 RES     
    7769 H6         267.4794  -194.8787  -144.9009 H6            1 RES     
    7770 C0         275.5938  -200.6484  -148.1616 C0            1 RES     
    7771 C0         277.0149  -200.0253  -147.7894 C0            1 RES     
    7772 C0         277.6170  -199.4690  -149.1236 C0            1 RES     
    7773 C0         279.1018  -199.0569  -149.0638 C0            1 RES     
    7774 C0         279.6447  -198.4942  -150.3893 C0            1 RES     
    7775 C0         279.5829  -199.4480  -151.5957 C0            1 RES     
    7776 C0         280.2420  -200.8202  -151.3784 C0            1 RES     
    7777 C0         281.7256  -200.7306  -150.9796 C0            1 RES     
    7778 C0         282.3681  -202.1100  -150.7613 C0            1 RES     
    7779 C0         282.4696  -202.9352  -152.0567 C0            1 RES     
    7780 C0         283.2230  -204.2608  -151.8664 C0            1 RES     
    7781 C0         282.4970  -205.2404  -150.9442 C0            1 RES     
    7782 C0         277.2944  -199.0382  -146.5793 C0            1 RES     
    7783 C0         276.7327  -197.5884  -146.5529 C0            1 RES     
    7784 C0         275.5717  -197.4278  -145.5552 C0            1 RES     
    7785 C0         274.9075  -196.0620  -145.4972 C0            1 RES     
    7786 C0         275.6942  -194.9390  -144.8362 C0            1 RES     
    7787 C0         274.7525  -193.7208  -144.7448 C0            1 RES     
    7788 C0         275.3230  -192.5348  -143.9651 C0            1 RES     
    7789 C0         275.4818  -192.8415  -142.4752 C0            1 RES     
    7790 H6         275.1843  -200.1003  -149.0418 H6            1 RES     
    7791 H6         275.8406  -201.6277  -148.6308 H6            1 RES     
    7792 H6         277.6223  -200.9131  -147.4976 H6            1 RES     
    7793 H6         277.0197  -198.5916  -149.4534 H6            1 RES     
    7794 H6         277.5167  -200.2607  -149.8969 H6            1 RES     
    7795 H6         279.7111  -199.9255  -148.7371 H6            1 RES     
    7796 H6         279.2439  -198.2346  -148.3361 H6            1 RES     
    7797 H6         280.7011  -198.1941  -150.2214 H6            1 RES     
    7798 H6         279.0857  -197.5686  -150.6499 H6            1 RES     
    7799 H6         280.0716  -198.9404  -152.4560 H6            1 RES     
    7800 H6         278.5211  -199.6162  -151.8759 H6            1 RES     
    7801 H6         279.6862  -201.3797  -150.5959 H6            1 RES     
    7802 H6         280.1380  -201.3776  -152.3316 H6            1 RES     
    7803 H6         281.8061  -200.1844  -150.0166 H6            1 RES     
    7804 H6         282.2978  -200.1670  -151.7480 H6            1 RES     
    7805 H6         283.3972  -201.9443  -150.3747 H6            1 RES     
    7806 H6         281.7893  -202.6564  -149.9866 H6            1 RES     
    7807 H6         281.4631  -203.1558  -152.4681 H6            1 RES     
    7808 H6         283.0299  -202.3341  -152.8057 H6            1 RES     
    7809 H6         284.2427  -204.0613  -151.4712 H6            1 RES     
    7810 H6         283.3263  -204.7430  -152.8624 H6            1 RES     
    7811 H6         282.4094  -204.8367  -149.9154 H6            1 RES     
    7812 H6         281.4837  -205.4625  -151.3413 H6            1 RES     
    7813 H6         283.0724  -206.1886  -150.8912 H6            1 RES     
    7814 H6         278.3939  -198.9250  -146.5604 H6            1 RES     
    7815 H6         277.1936  -199.5217  -145.5895 H6            1 RES     
    7816 H6         277.5309  -196.9238  -146.1548 H6            1 RES     
    7817 H6         276.4890  -197.2386  -147.5765 H6            1 RES     
    7818 H6         275.8958  -197.7344  -144.5348 H6            1 RES     
    7819 H6         274.7462  -198.0666  -145.8485 H6            1 RES     
    7820 H6         274.5589  -195.7677  -146.5110 H6            1 RES     
    7821 H6         274.0329  -196.2025  -144.8408 H6            1 RES     
    7822 H6         275.9877  -195.2825  -143.8218 H6            1 RES     
    7823 H6         276.6069  -194.6918  -145.4174 H6            1 RES     
    7824 H6         274.5167  -193.3895  -145.7800 H6            1 RES     
    7825 H6         273.7928  -194.0101  -144.2578 H6            1 RES     
    7826 H6         274.5960  -191.6982  -144.0573 H6            1 RES     
    7827 H6         276.2883  -192.2165  -144.4063 H6            1 RES     
    7828 H6         276.2269  -193.6436  -142.3036 H6            1 RES     
    7829 H6         275.8270  -191.9285  -141.9481 H6            1 RES     
    7830 H6         274.5064  -193.1510  -142.0396 H6            1 RES     
    7831 C0         273.4443  -213.8585  -148.1569 C0            1 RES     
    7832 C1         272.8431  -212.4502  -148.3593 C1            1 RES     
    7833 C1         271.7891  -212.4561  -149.2162 C1            1 RES     
    7834 S2         271.1720  -210.9318  -149.5294 S2            1 RES     
    7835 C1         272.3398  -210.1841  -148.5455 C1            1 RES     
    7836 C1         273.1961  -211.1414  -147.9905 C1            1 RES     
    7837 C1         271.5923  -213.7725  -149.6865 C1            1 RES     
    7838 C1         272.5622  -214.5793  -149.1774 C1            1 RES     
    7839 C1         272.5165  -215.8617  -149.7109 C1            1 RES     
    7840 C1         271.4463  -215.9843  -150.6131 C1            1 RES     
    7841 S2         270.5798  -214.5319  -150.7657 S2            1 RES     
    7842 H3         274.0467  -210.8595  -147.3995 H3            1 RES     
    7843 H3         273.2144  -216.6538  -149.4671 H3            1 RES     
    7844 N4         269.6839  -218.9535  -152.0718 N4            1 RES     
    7845 C1         269.9687  -217.8938  -151.2594 C1            1 RES     
    7846 C1         271.1459  -217.1474  -151.4405 C1            1 RES     
    7847 C1         271.9991  -217.5067  -152.4854 C1            1 RES     
    7848 N4         273.1357  -216.8359  -152.8043 N4            1 RES     
    7849 S2         273.6711  -217.6640  -154.1307 S2            1 RES     
    7850 N4         272.5373  -218.8512  -154.3395 N4            1 RES     
    7851 C1         271.6711  -218.5989  -153.3273 C1            1 RES     
    7852 C1         270.5063  -219.3249  -153.0928 C1            1 RES     
    7853 H5         269.2792  -217.6349  -150.4606 H5            1 RES     
    7854 C0         273.2871  -214.5761  -146.7701 C0            1 RES     
    7855 C0         272.0156  -215.2078  -146.0875 C0            1 RES     
    7856 C0         272.4946  -215.6484  -144.6596 C0            1 RES     
    7857 C0         271.4694  -216.3730  -143.7784 C0            1 RES     
    7858 C0         272.0348  -216.7128  -142.3792 C0            1 RES     
    7859 C0         273.2405  -217.6780  -142.3571 C0            1 RES     
    7860 C0         273.0094  -219.0199  -143.0741 C0            1 RES     
    7861 C0         271.8099  -219.8045  -142.5136 C0            1 RES     
    7862 C0         271.5474  -221.1163  -143.2671 C0            1 RES     
    7863 C0         272.6645  -222.1566  -143.0791 C0            1 RES     
    7864 C0         272.3382  -223.5043  -143.7421 C0            1 RES     
    7865 C0         272.2572  -223.4215  -145.2669 C0            1 RES     
    7866 C0         270.6821  -214.3929  -146.0338 C0            1 RES     
    7867 C0         270.6283  -213.0727  -145.2049 C0            1 RES     
    7868 C0         270.2537  -211.9167  -146.1373 C0            1 RES     
    7869 C0         270.4566  -210.4920  -145.6296 C0            1 RES     
    7870 C0         269.3852  -209.9468  -144.6966 C0            1 RES     
    7871 C0         269.7614  -208.4911  -144.3489 C0            1 RES     
    7872 C0         268.6854  -207.7319  -143.5691 C0            1 RES     
    7873 C0         267.4378  -207.4630  -144.4132 C0            1 RES     
    7874 H6         273.6605  -213.9017  -146.0424 H6            1 RES     
    7875 H6         273.9962  -215.4328  -146.8244 H6            1 RES     
    7876 H6         271.7623  -216.1207  -146.6716 H6            1 RES     
    7877 H6         272.8367  -214.7534  -144.0955 H6            1 RES     
    7878 H6         273.3712  -216.3187  -144.7887 H6            1 RES     
    7879 H6         271.1089  -217.2895  -144.2881 H6            1 RES     
    7880 H6         270.6009  -215.7060  -143.6052 H6            1 RES     
    7881 H6         271.2148  -217.1499  -141.7728 H6            1 RES     
    7882 H6         272.3376  -215.7724  -141.8676 H6            1 RES     
    7883 H6         273.5035  -217.8765  -141.2941 H6            1 RES     
    7884 H6         274.1226  -217.1859  -142.8195 H6            1 RES     
    7885 H6         272.8548  -218.8339  -144.1579 H6            1 RES     
    7886 H6         273.9379  -219.6175  -142.9624 H6            1 RES     
    7887 H6         270.8936  -219.1912  -142.6327 H6            1 RES     
    7888 H6         271.9551  -220.0094  -141.4302 H6            1 RES     
    7889 H6         270.6027  -221.5477  -142.8700 H6            1 RES     
    7890 H6         271.3984  -220.8826  -144.3422 H6            1 RES     
    7891 H6         273.6280  -221.7831  -143.4837 H6            1 RES     
    7892 H6         272.7883  -222.3373  -141.9890 H6            1 RES     
    7893 H6         271.3812  -223.9012  -143.3385 H6            1 RES     
    7894 H6         273.1463  -224.2217  -143.4822 H6            1 RES     
    7895 H6         271.4305  -222.7585  -145.5926 H6            1 RES     
    7896 H6         273.2166  -223.0456  -145.6815 H6            1 RES     
    7897 H6         272.0641  -224.4337  -145.6799 H6            1 RES     
    7898 H6         269.8966  -215.0614  -145.6210 H6            1 RES     
    7899 H6         270.3334  -214.2287  -147.0758 H6            1 RES     
    7900 H6         269.8558  -213.1391  -144.4062 H6            1 RES     
    7901 H6         271.6090  -212.8854  -144.7223 H6            1 RES     
    7902 H6         269.2483  -212.0487  -146.5896 H6            1 RES     
    7903 H6         270.9722  -211.9951  -146.9252 H6            1 RES     
    7904 H6         271.4486  -210.4111  -145.1786 H6            1 RES     
    7905 H6         270.4511  -209.8353  -146.5292 H6            1 RES     
    7906 H6         268.4208  -209.9859  -145.2460 H6            1 RES     
    7907 H6         269.3043  -210.5554  -143.7712 H6            1 RES     
    7908 H6         270.6956  -208.5132  -143.7432 H6            1 RES     
    7909 H6         269.9764  -207.9124  -145.2759 H6            1 RES     
    7910 H6         269.1099  -206.7448  -143.2817 H6            1 RES     
    7911 H6         268.4196  -208.2833  -142.6428 H6            1 RES     
    7912 H6         266.9342  -208.4053  -144.7061 H6            1 RES     
    7913 H6         266.7195  -206.8530  -143.8287 H6            1 RES     
    7914 H6         267.7121  -206.8972  -145.3316 H6            1 RES     
    7915 C0         274.9571  -213.7268  -148.5924 C0            1 RES     
    7916 C0         276.2177  -213.8379  -147.6204 C0            1 RES     
    7917 C0         277.4020  -213.1165  -148.3480 C0            1 RES     
    7918 C0         278.7954  -213.3252  -147.7210 C0            1 RES     
    7919 C0         279.9248  -212.5797  -148.4538 C0            1 RES     
    7920 C0         280.1317  -212.9639  -149.9298 C0            1 RES     
    7921 C0         280.3308  -214.4659  -150.1925 C0            1 RES     
    7922 C0         281.5186  -215.0699  -149.4228 C0            1 RES     
    7923 C0         281.7009  -216.5723  -149.6923 C0            1 RES     
    7924 C0         282.1169  -216.8744  -151.1430 C0            1 RES     
    7925 C0         282.4211  -218.3614  -151.3830 C0            1 RES     
    7926 C0         281.1942  -219.2606  -151.2306 C0            1 RES     
    7927 C0         276.2111  -213.5059  -146.0691 C0            1 RES     
    7928 C0         276.0206  -212.0569  -145.5380 C0            1 RES     
    7929 C0         274.6282  -211.8377  -144.9195 C0            1 RES     
    7930 C0         274.3151  -210.4346  -144.4265 C0            1 RES     
    7931 C0         275.0069  -209.9813  -143.1486 C0            1 RES     
    7932 C0         274.4002  -208.6156  -142.7667 C0            1 RES     
    7933 C0         274.8663  -208.0696  -141.4158 C0            1 RES     
    7934 C0         274.3555  -208.9079  -140.2430 C0            1 RES     
    7935 H6         275.0584  -212.7989  -149.2021 H6            1 RES     
    7936 H6         275.1446  -214.5009  -149.3706 H6            1 RES     
    7937 H6         276.4488  -214.9281  -147.6140 H6            1 RES     
    7938 H6         277.1925  -212.0258  -148.3888 H6            1 RES     
    7939 H6         277.4405  -213.4963  -149.3916 H6            1 RES     
    7940 H6         279.0187  -214.4117  -147.6757 H6            1 RES     
    7941 H6         278.8189  -212.9185  -146.6914 H6            1 RES     
    7942 H6         280.8685  -212.7655  -147.8978 H6            1 RES     
    7943 H6         279.7331  -211.4852  -148.4038 H6            1 RES     
    7944 H6         281.0179  -212.4070  -150.3053 H6            1 RES     
    7945 H6         279.2565  -212.6233  -150.5233 H6            1 RES     
    7946 H6         279.4036  -215.0161  -149.9244 H6            1 RES     
    7947 H6         280.4884  -214.5796  -151.2844 H6            1 RES     
    7948 H6         281.3336  -214.9605  -148.3338 H6            1 RES     
    7949 H6         282.4558  -214.5270  -149.6726 H6            1 RES     
    7950 H6         282.5046  -216.9399  -149.0177 H6            1 RES     
    7951 H6         280.7591  -217.1001  -149.4309 H6            1 RES     
    7952 H6         281.3310  -216.5540  -151.8576 H6            1 RES     
    7953 H6         283.0443  -216.3015  -151.3625 H6            1 RES     
    7954 H6         283.2206  -218.6993  -150.6883 H6            1 RES     
    7955 H6         282.7974  -218.4714  -152.4229 H6            1 RES     
    7956 H6         280.8017  -219.2354  -150.1940 H6            1 RES     
    7957 H6         280.3962  -218.9438  -151.9354 H6            1 RES     
    7958 H6         281.4770  -220.3087  -151.4634 H6            1 RES     
    7959 H6         277.2103  -213.8175  -145.7133 H6            1 RES     
    7960 H6         275.6257  -214.2289  -145.4706 H6            1 RES     
    7961 H6         276.7241  -211.9128  -144.6886 H6            1 RES     
    7962 H6         276.2821  -211.3115  -146.3162 H6            1 RES     
    7963 H6         274.4492  -212.5742  -144.1035 H6            1 RES     
    7964 H6         273.8648  -211.9857  -145.6752 H6            1 RES     
    7965 H6         274.4669  -209.7021  -145.2489 H6            1 RES     
    7966 H6         273.2457  -210.4625  -144.1600 H6            1 RES     
    7967 H6         274.7947  -210.7363  -142.3624 H6            1 RES     
    7968 H6         276.1045  -209.9011  -143.2928 H6            1 RES     
    7969 H6         274.6693  -207.8850  -143.5610 H6            1 RES     
    7970 H6         273.2882  -208.6822  -142.7343 H6            1 RES     
    7971 H6         274.4388  -207.0487  -141.3067 H6            1 RES     
    7972 H6         275.9717  -207.9957  -141.3947 H6            1 RES     
    7973 H6         274.7757  -209.9330  -140.2642 H6            1 RES     
    7974 H6         274.6592  -208.4279  -139.2902 H6            1 RES     
    7975 H6         273.2453  -208.9685  -140.2677 H6            1 RES     
    7976 C0         270.1096  -224.3524  -155.1288 C0            1 RES     
    7977 C1         269.9643  -222.8456  -154.8219 C1            1 RES     
    7978 C1         269.3583  -222.1683  -155.8315 C1            1 RES     
    7979 S2         269.2680  -220.5171  -155.5706 S2            1 RES     
    7980 C1         270.0901  -220.6393  -154.0874 C1            1 RES     
    7981 C1         270.4247  -221.9719  -153.8228 C1            1 RES     
    7982 C1         269.0755  -223.0707  -156.8795 C1            1 RES     
    7983 C1         269.5628  -224.2991  -156.5561 C1            1 RES     
    7984 C1         269.4472  -225.2057  -157.6030 C1            1 RES     
    7985 C1         268.8187  -224.6075  -158.7082 C1            1 RES     
    7986 S2         268.4268  -222.9827  -158.4086 S2            1 RES     
    7987 H3         271.0147  -222.2443  -152.9684 H3            1 RES     
    7988 H3         269.7991  -226.2299  -157.5704 H3            1 RES     
    7989 N4         267.1599  -226.0225  -161.7572 N4            1 RES     
    7990 C1         267.3302  -225.4923  -160.5106 C1            1 RES     
    7991 C1         268.6175  -225.2162  -160.0185 C1            1 RES     
    7992 C1         269.7096  -225.4778  -160.8478 C1            1 RES     
    7993 N4         270.9980  -225.2045  -160.5179 N4            1 RES     
    7994 S2         271.8129  -225.6575  -161.8827 S2            1 RES     
    7995 N4         270.6197  -226.1954  -162.8952 N4            1 RES     
    7996 C1         269.5051  -226.0100  -162.1456 C1            1 RES     
    7997 C1         268.2124  -226.2916  -162.5797 C1            1 RES     
    7998 H5         266.4585  -225.2922  -159.8935 H5            1 RES     
    7999 C0         269.2662  -225.3942  -154.3126 C0            1 RES     
    8000 C0         267.7232  -225.7101  -154.3502 C0            1 RES     
    8001 C0         267.4929  -226.7599  -153.2069 C0            1 RES     
    8002 C0         266.0715  -227.3149  -153.0525 C0            1 RES     
    8003 C0         265.9519  -228.2993  -151.8653 C0            1 RES     
    8004 C0         266.8057  -229.5826  -151.9668 C0            1 RES     
    8005 C0         266.5835  -230.4091  -153.2456 C0            1 RES     
    8006 C0         265.1189  -230.8413  -153.4375 C0            1 RES     
    8007 C0         264.8896  -231.6178  -154.7421 C0            1 RES     
    8008 C0         265.5826  -232.9908  -154.7595 C0            1 RES     
    8009 C0         265.2528  -233.8062  -156.0200 C0            1 RES     
    8010 C0         265.7971  -233.1778  -157.3034 C0            1 RES     
    8011 C0         266.6923  -224.5362  -154.2855 C0            1 RES     
    8012 C0         266.6115  -223.6626  -152.9959 C0            1 RES     
    8013 C0         266.8990  -222.2044  -153.3659 C0            1 RES     
    8014 C0         267.1966  -221.2235  -152.2354 C0            1 RES     
    8015 C0         265.9948  -220.6826  -151.4745 C0            1 RES     
    8016 C0         266.5167  -219.6832  -150.4209 C0            1 RES     
    8017 C0         265.4184  -218.9028  -149.6951 C0            1 RES     
    8018 C0         264.6955  -217.9216  -150.6203 C0            1 RES     
    8019 H6         269.4633  -225.2000  -153.2893 H6            1 RES     
    8020 H6         269.7307  -226.3753  -154.5605 H6            1 RES     
    8021 H6         267.5241  -226.2040  -155.3275 H6            1 RES     
    8022 H6         267.7753  -226.3071  -152.2313 H6            1 RES     
    8023 H6         268.1777  -227.6155  -153.3901 H6            1 RES     
    8024 H6         265.7465  -227.7984  -153.9961 H6            1 RES     
    8025 H6         265.3759  -226.4804  -152.8309 H6            1 RES     
    8026 H6         264.8850  -228.5862  -151.7613 H6            1 RES     
    8027 H6         266.2298  -227.7749  -150.9243 H6            1 RES     
    8028 H6         266.5795  -230.2179  -151.0816 H6            1 RES     
    8029 H6         267.8837  -229.3207  -151.9068 H6            1 RES     
    8030 H6         266.9119  -229.8172  -154.1259 H6            1 RES     
    8031 H6         267.2361  -231.3042  -153.1772 H6            1 RES     
    8032 H6         264.4835  -229.9346  -153.5020 H6            1 RES     
    8033 H6         264.7780  -231.4461  -152.5688 H6            1 RES     
    8034 H6         263.7948  -231.7816  -154.8467 H6            1 RES     
    8035 H6         265.2301  -230.9896  -155.5919 H6            1 RES     
    8036 H6         266.6842  -232.8812  -154.6827 H6            1 RES     
    8037 H6         265.2253  -233.5690  -153.8797 H6            1 RES     
    8038 H6         264.1522  -233.9380  -156.1066 H6            1 RES     
    8039 H6         265.7133  -234.8118  -155.9110 H6            1 RES     
    8040 H6         265.3339  -232.1895  -157.4979 H6            1 RES     
    8041 H6         266.8996  -233.0611  -157.2350 H6            1 RES     
    8042 H6         265.5626  -233.8386  -158.1640 H6            1 RES     
    8043 H6         265.6809  -224.9686  -154.4423 H6            1 RES     
    8044 H6         266.8262  -223.9063  -155.1910 H6            1 RES     
    8045 H6         265.5938  -223.7131  -152.5478 H6            1 RES     
    8046 H6         267.3391  -224.0270  -152.2426 H6            1 RES     
    8047 H6         266.1496  -221.7937  -154.0749 H6            1 RES     
    8048 H6         267.8323  -222.2629  -153.8845 H6            1 RES     
    8049 H6         267.9232  -221.6730  -151.5542 H6            1 RES     
    8050 H6         267.6902  -220.3432  -152.7065 H6            1 RES     
    8051 H6         265.3408  -220.1731  -152.2135 H6            1 RES     
    8052 H6         265.4247  -221.4987  -150.9824 H6            1 RES     
    8053 H6         267.1082  -220.2539  -149.6695 H6            1 RES     
    8054 H6         267.2007  -218.9415  -150.8929 H6            1 RES     
    8055 H6         265.9033  -218.3049  -148.8922 H6            1 RES     
    8056 H6         264.6955  -219.6020  -149.2248 H6            1 RES     
    8057 H6         264.1520  -218.4498  -151.4283 H6            1 RES     
    8058 H6         263.9600  -217.3336  -150.0345 H6            1 RES     
    8059 H6         265.4260  -217.2158  -151.0751 H6            1 RES     
    8060 C0         271.6601  -224.6423  -155.0435 C0            1 RES     
    8061 C0         272.3795  -225.5361  -153.9346 C0            1 RES     
    8062 C0         273.8821  -225.0953  -153.9176 C0            1 RES     
    8063 C0         274.8338  -226.0028  -153.1121 C0            1 RES     
    8064 C0         276.2947  -225.5192  -153.1031 C0            1 RES     
    8065 C0         276.9734  -225.4166  -154.4807 C0            1 RES     
    8066 C0         276.9215  -226.6962  -155.3319 C0            1 RES     
    8067 C0         277.5460  -227.9192  -154.6375 C0            1 RES     
    8068 C0         277.4816  -229.1908  -155.4991 C0            1 RES     
    8069 C0         278.3553  -229.1025  -156.7632 C0            1 RES     
    8070 C0         278.3916  -230.4155  -157.5606 C0            1 RES     
    8071 C0         277.0373  -230.7955  -158.1594 C0            1 RES     
    8072 C0         271.8385  -225.7833  -152.4638 C0            1 RES     
    8073 C0         271.7810  -224.6454  -151.4056 C0            1 RES     
    8074 C0         270.3439  -224.1598  -151.1446 C0            1 RES     
    8075 C0         270.1818  -223.0035  -150.1717 C0            1 RES     
    8076 C0         270.3984  -223.3072  -148.6959 C0            1 RES     
    8077 C0         270.0095  -222.0373  -147.9117 C0            1 RES     
    8078 C0         270.0166  -222.2034  -146.3910 C0            1 RES     
    8079 C0         268.9147  -223.1460  -145.9046 C0            1 RES     
    8080 H6         272.1954  -223.6670  -155.1168 H6            1 RES     
    8081 H6         271.9613  -225.1106  -156.0078 H6            1 RES     
    8082 H6         272.3418  -226.5648  -154.3617 H6            1 RES     
    8083 H6         273.9528  -224.0622  -153.5139 H6            1 RES     
    8084 H6         274.2418  -225.0767  -154.9689 H6            1 RES     
    8085 H6         274.7746  -227.0389  -153.5065 H6            1 RES     
    8086 H6         274.5408  -226.0161  -152.0444 H6            1 RES     
    8087 H6         276.8778  -226.2177  -152.4657 H6            1 RES     
    8088 H6         276.3464  -224.5208  -152.6157 H6            1 RES     
    8089 H6         278.0353  -225.1304  -154.3163 H6            1 RES     
    8090 H6         276.5004  -224.5966  -155.0621 H6            1 RES     
    8091 H6         275.8667  -226.9245  -155.5956 H6            1 RES     
    8092 H6         277.4654  -226.4747  -156.2727 H6            1 RES     
    8093 H6         276.9778  -228.1336  -153.7083 H6            1 RES     
    8094 H6         278.6010  -227.7072  -154.3590 H6            1 RES     
    8095 H6         277.8530  -230.0359  -154.8796 H6            1 RES     
    8096 H6         276.4214  -229.3920  -155.7622 H6            1 RES     
    8097 H6         278.0051  -228.2908  -157.4335 H6            1 RES     
    8098 H6         279.3962  -228.8715  -156.4478 H6            1 RES     
    8099 H6         278.7579  -231.2405  -156.9117 H6            1 RES     
    8100 H6         279.1111  -230.2889  -158.3980 H6            1 RES     
    8101 H6         276.2858  -230.9884  -157.3675 H6            1 RES     
    8102 H6         276.6716  -229.9858  -158.8262 H6            1 RES     
    8103 H6         277.1489  -231.7240  -158.7578 H6            1 RES     
    8104 H6         272.5219  -226.5416  -152.0394 H6            1 RES     
    8105 H6         270.9208  -226.4004  -152.4344 H6            1 RES     
    8106 H6         272.1078  -225.0724  -150.4319 H6            1 RES     
    8107 H6         272.4850  -223.8283  -151.6630 H6            1 RES     
    8108 H6         269.7008  -225.0126  -150.8292 H6            1 RES     
    8109 H6         269.9261  -223.7467  -152.0559 H6            1 RES     
    8110 H6         270.8023  -222.1420  -150.5015 H6            1 RES     
    8111 H6         269.1164  -222.7280  -150.2377 H6            1 RES     
    8112 H6         269.7332  -224.1535  -148.4230 H6            1 RES     
    8113 H6         271.4526  -223.5902  -148.4946 H6            1 RES     
    8114 H6         270.7233  -221.2301  -148.1876 H6            1 RES     
    8115 H6         268.9894  -221.6986  -148.2059 H6            1 RES     
    8116 H6         269.8182  -221.2027  -145.9482 H6            1 RES     
    8117 H6         271.0115  -222.5518  -146.0495 H6            1 RES     
    8118 H6         269.0709  -224.1782  -146.2762 H6            1 RES     
    8119 H6         268.9182  -223.1721  -144.7956 H6            1 RES     
    8120 H6         267.9198  -222.7831  -146.2443 H6            1 RES     
    8121 C0         267.5432  -229.7853  -166.6937 C0            1 RES     
    8122 C1         267.6270  -228.5365  -165.7886 C1            1 RES     
    8123 C1         267.6322  -227.3803  -166.5016 C1            1 RES     
    8124 S2         267.8150  -226.0111  -165.5560 S2            1 RES     
    8125 C1         267.9399  -226.9307  -164.1313 C1            1 RES     
    8126 C1         267.8395  -228.2958  -164.4209 C1            1 RES     
    8127 C1         267.5910  -227.6939  -167.8773 C1            1 RES     
    8128 C1         267.6270  -229.0454  -168.0296 C1            1 RES     
    8129 C1         267.7338  -229.4242  -169.3624 C1            1 RES     
    8130 C1         267.7388  -228.2951  -170.1987 C1            1 RES     
    8131 S2         267.6314  -226.8516  -169.3110 S2            1 RES     
    8132 H3         267.9706  -229.0427  -163.6611 H3            1 RES     
    8133 H3         267.8081  -230.4491  -169.7057 H3            1 RES     
    8134 N4         267.1408  -227.8555  -173.8729 N4            1 RES     
    8135 C1         266.9211  -227.8909  -172.5258 C1            1 RES     
    8136 C1         267.9385  -228.2942  -171.6436 C1            1 RES     
    8137 C1         269.1808  -228.6335  -172.1824 C1            1 RES     
    8138 N4         270.2621  -228.9834  -171.4395 N4            1 RES     
    8139 S2         271.4248  -229.2015  -172.5939 S2            1 RES     
    8140 N4         270.6377  -228.8789  -174.0133 N4            1 RES     
    8141 C1         269.3895  -228.5696  -173.5830 C1            1 RES     
    8142 C1         268.3435  -228.1892  -174.4195 C1            1 RES     
    8143 H5         265.9452  -227.6120  -172.1379 H5            1 RES     
    8144 C0         266.2392  -230.6584  -166.6906 C0            1 RES     
    8145 C0         264.8066  -230.3531  -167.2704 C0            1 RES     
    8146 C0         263.9198  -231.5709  -166.8312 C0            1 RES     
    8147 C0         262.4673  -231.5829  -167.3237 C0            1 RES     
    8148 C0         261.6766  -232.8000  -166.7885 C0            1 RES     
    8149 C0         262.1943  -234.1862  -167.2316 C0            1 RES     
    8150 C0         262.3146  -234.3767  -168.7539 C0            1 RES     
    8151 C0         260.9867  -234.1471  -169.4972 C0            1 RES     
    8152 C0         261.1218  -234.2828  -171.0206 C0            1 RES     
    8153 C0         261.4431  -235.7167  -171.4747 C0            1 RES     
    8154 C0         261.4627  -235.8644  -173.0045 C0            1 RES     
    8155 C0         262.5914  -235.0772  -173.6713 C0            1 RES     
    8156 C0         264.1210  -228.9836  -166.9546 C0            1 RES     
    8157 C0         263.7363  -228.6453  -165.4814 C0            1 RES     
    8158 C0         264.4613  -227.3630  -165.0616 C0            1 RES     
    8159 C0         264.5006  -227.0156  -163.5762 C0            1 RES     
    8160 C0         263.2491  -226.3711  -162.9983 C0            1 RES     
    8161 C0         263.5230  -226.0633  -161.5112 C0            1 RES     
    8162 C0         262.4307  -225.2377  -160.8275 C0            1 RES     
    8163 C0         262.3657  -223.8054  -161.3618 C0            1 RES     
    8164 H6         266.0567  -230.9168  -165.6788 H6            1 RES     
    8165 H6         266.5338  -231.5904  -167.2239 H6            1 RES     
    8166 H6         264.9028  -230.3688  -168.3790 H6            1 RES     
    8167 H6         263.8894  -231.6205  -165.7208 H6            1 RES     
    8168 H6         264.4134  -232.4975  -167.1948 H6            1 RES     
    8169 H6         262.4403  -231.5552  -168.4320 H6            1 RES     
    8170 H6         261.9443  -230.6838  -166.9398 H6            1 RES     
    8171 H6         260.6198  -232.6929  -167.1095 H6            1 RES     
    8172 H6         261.6717  -232.7741  -165.6763 H6            1 RES     
    8173 H6         261.5043  -234.9583  -166.8239 H6            1 RES     
    8174 H6         263.1912  -234.3757  -166.7792 H6            1 RES     
    8175 H6         263.0843  -233.6813  -169.1501 H6            1 RES     
    8176 H6         262.6720  -235.4126  -168.9292 H6            1 RES     
    8177 H6         260.6456  -233.1088  -169.3086 H6            1 RES     
    8178 H6         260.2075  -234.8450  -169.1197 H6            1 RES     
    8179 H6         260.1493  -233.9871  -171.4710 H6            1 RES     
    8180 H6         261.8985  -233.5711  -171.3713 H6            1 RES     
    8181 H6         262.4207  -236.0522  -171.0707 H6            1 RES     
    8182 H6         260.6508  -236.3895  -171.0802 H6            1 RES     
    8183 H6         260.4849  -235.5451  -173.4267 H6            1 RES     
    8184 H6         261.6082  -236.9395  -173.2457 H6            1 RES     
    8185 H6         262.4731  -233.9865  -173.5115 H6            1 RES     
    8186 H6         263.5746  -235.4040  -173.2710 H6            1 RES     
    8187 H6         262.5733  -235.2646  -174.7654 H6            1 RES     
    8188 H6         263.1838  -228.9325  -167.5492 H6            1 RES     
    8189 H6         264.7353  -228.1755  -167.4063 H6            1 RES     
    8190 H6         262.6408  -228.4710  -165.3893 H6            1 RES     
    8191 H6         264.0096  -229.4871  -164.8133 H6            1 RES     
    8192 H6         264.1615  -226.4886  -165.6767 H6            1 RES     
    8193 H6         265.4849  -227.5762  -165.2853 H6            1 RES     
    8194 H6         264.7824  -227.9057  -163.0083 H6            1 RES     
    8195 H6         265.3212  -226.2731  -163.4500 H6            1 RES     
    8196 H6         263.0681  -225.4359  -163.5692 H6            1 RES     
    8197 H6         262.3662  -227.0374  -163.0975 H6            1 RES     
    8198 H6         263.6298  -227.0328  -160.9737 H6            1 RES     
    8199 H6         264.4831  -225.5100  -161.3984 H6            1 RES     
    8200 H6         262.6810  -225.1765  -159.7455 H6            1 RES     
    8201 H6         261.4458  -225.7395  -160.9327 H6            1 RES     
    8202 H6         262.0806  -223.7832  -162.4321 H6            1 RES     
    8203 H6         261.6096  -223.2305  -160.7895 H6            1 RES     
    8204 H6         263.3527  -223.3060  -161.2386 H6            1 RES     
    8205 C0         268.8298  -230.6333  -166.3453 C0            1 RES     
    8206 C0         268.8388  -232.0524  -165.6158 C0            1 RES     
    8207 C0         270.2712  -232.2279  -165.0078 C0            1 RES     
    8208 C0         270.6037  -233.6390  -164.4821 C0            1 RES     
    8209 C0         272.0115  -233.7596  -163.8724 C0            1 RES     
    8210 C0         273.1807  -233.4432  -164.8220 C0            1 RES     
    8211 C0         273.1848  -234.2353  -166.1401 C0            1 RES     
    8212 C0         273.1989  -235.7607  -165.9377 C0            1 RES     
    8213 C0         273.1977  -236.5376  -167.2642 C0            1 RES     
    8214 C0         274.4933  -236.3445  -168.0725 C0            1 RES     
    8215 C0         274.5477  -237.2163  -169.3367 C0            1 RES     
    8216 C0         273.4894  -236.8413  -170.3743 C0            1 RES     
    8217 C0         267.7240  -232.5762  -164.6160 C0            1 RES     
    8218 C0         267.5096  -231.9380  -163.2143 C0            1 RES     
    8219 C0         266.2318  -231.0823  -163.1492 C0            1 RES     
    8220 C0         265.9616  -230.3604  -161.8394 C0            1 RES     
    8221 C0         265.5086  -231.2124  -160.6620 C0            1 RES     
    8222 C0         265.1350  -230.2441  -159.5210 C0            1 RES     
    8223 C0         264.5078  -230.9160  -158.2982 C0            1 RES     
    8224 C0         263.1244  -231.4947  -158.5992 C0            1 RES     
    8225 H6         269.5524  -229.9615  -165.8262 H6            1 RES     
    8226 H6         269.3733  -230.8147  -167.3002 H6            1 RES     
    8227 H6         268.7448  -232.7795  -166.4552 H6            1 RES     
    8228 H6         270.4048  -231.5009  -164.1777 H6            1 RES     
    8229 H6         271.0090  -231.9801  -165.8010 H6            1 RES     
    8230 H6         270.4760  -234.3760  -165.3025 H6            1 RES     
    8231 H6         269.9203  -233.9124  -163.6549 H6            1 RES     
    8232 H6         272.1272  -234.7970  -163.4921 H6            1 RES     
    8233 H6         272.0876  -233.0846  -162.9916 H6            1 RES     
    8234 H6         274.1275  -233.6419  -164.2738 H6            1 RES     
    8235 H6         273.1682  -232.3606  -165.0707 H6            1 RES     
    8236 H6         272.2960  -233.9549  -166.7449 H6            1 RES     
    8237 H6         274.0886  -233.9180  -166.6991 H6            1 RES     
    8238 H6         272.2796  -236.0590  -165.3917 H6            1 RES     
    8239 H6         274.0784  -236.0604  -165.3276 H6            1 RES     
    8240 H6         273.0990  -237.6180  -167.0211 H6            1 RES     
    8241 H6         272.3099  -236.2321  -167.8577 H6            1 RES     
    8242 H6         274.6235  -235.2831  -168.3685 H6            1 RES     
    8243 H6         275.3500  -236.6352  -167.4261 H6            1 RES     
    8244 H6         274.4373  -238.2875  -169.0607 H6            1 RES     
    8245 H6         275.5467  -237.0809  -169.8044 H6            1 RES     
    8246 H6         272.4650  -237.0064  -169.9837 H6            1 RES     
    8247 H6         273.6040  -235.7773  -170.6723 H6            1 RES     
    8248 H6         273.6181  -237.4773  -171.2752 H6            1 RES     
    8249 H6         267.9995  -233.6283  -164.4180 H6            1 RES     
    8250 H6         266.7565  -232.7832  -165.1109 H6            1 RES     
    8251 H6         267.3246  -232.7633  -162.4918 H6            1 RES     
    8252 H6         268.4201  -231.4011  -162.8793 H6            1 RES     
    8253 H6         265.3450  -231.6925  -163.4349 H6            1 RES     
    8254 H6         266.3079  -230.2573  -163.8486 H6            1 RES     
    8255 H6         266.8357  -229.7296  -161.5679 H6            1 RES     
    8256 H6         265.0973  -229.7093  -162.0505 H6            1 RES     
    8257 H6         264.6202  -231.7942  -160.9869 H6            1 RES     
    8258 H6         266.3079  -231.9127  -160.3419 H6            1 RES     
    8259 H6         266.0593  -229.7129  -159.2038 H6            1 RES     
    8260 H6         264.4148  -229.4761  -159.8863 H6            1 RES     
    8261 H6         264.3788  -230.1319  -157.5201 H6            1 RES     
    8262 H6         265.1848  -231.6995  -157.9038 H6            1 RES     
    8263 H6         263.1811  -232.3151  -159.3419 H6            1 RES     
    8264 H6         262.6867  -231.9019  -157.6648 H6            1 RES     
    8265 H6         262.4500  -230.6992  -158.9856 H6            1 RES     
    8266 C0         268.5863  -229.5396  -179.6822 C0            1 RES     
    8267 C1         268.5826  -228.8045  -178.3238 C1            1 RES     
    8268 C1         269.1232  -227.5611  -178.4071 C1            1 RES     
    8269 S2         269.2187  -226.7722  -176.9336 S2            1 RES     
    8270 C1         268.5674  -228.1049  -176.1026 C1            1 RES     
    8271 C1         268.2890  -229.1473  -176.9934 C1            1 RES     
    8272 C1         269.5567  -227.3412  -179.7324 C1            1 RES     
    8273 C1         269.3492  -228.4692  -180.4641 C1            1 RES     
    8274 C1         269.8836  -228.3748  -181.7435 C1            1 RES     
    8275 C1         270.4664  -227.1121  -181.9442 C1            1 RES     
    8276 S2         270.3420  -226.1327  -180.5626 S2            1 RES     
    8277 H3         267.9424  -230.1033  -176.6493 H3            1 RES     
    8278 H3         269.8576  -229.1687  -182.4803 H3            1 RES     
    8279 N4         271.4716  -225.2429  -185.0338 N4            1 RES     
    8280 C1         270.7391  -225.6588  -183.9593 C1            1 RES     
    8281 C1         271.2118  -226.6848  -183.1229 C1            1 RES     
    8282 C1         272.4571  -227.2468  -183.4097 C1            1 RES     
    8283 N4         273.0534  -228.2021  -182.6512 N4            1 RES     
    8284 S2         274.4959  -228.4173  -183.4287 S2            1 RES     
    8285 N4         274.4217  -227.3595  -184.6991 N4            1 RES     
    8286 C1         273.2071  -226.7839  -184.5199 C1            1 RES     
    8287 C1         272.6858  -225.7828  -185.3352 C1            1 RES     
    8288 H5         269.7774  -225.1944  -183.7586 H5            1 RES     
    8289 C0         267.2276  -229.8172  -180.4167 C0            1 RES     
    8290 C0         266.2438  -228.8281  -181.1486 C0            1 RES     
    8291 C0         265.0099  -229.7070  -181.5579 C0            1 RES     
    8292 C0         263.9038  -229.0151  -182.3641 C0            1 RES     
    8293 C0         262.7183  -229.9618  -182.6660 C0            1 RES     
    8294 C0         263.0472  -231.1957  -183.5350 C0            1 RES     
    8295 C0         263.7097  -230.8780  -184.8871 C0            1 RES     
    8296 C0         262.8668  -229.9362  -185.7652 C0            1 RES     
    8297 C0         263.5551  -229.5761  -187.0896 C0            1 RES     
    8298 C0         263.7025  -230.7755  -188.0411 C0            1 RES     
    8299 C0         264.2874  -230.3814  -189.4067 C0            1 RES     
    8300 C0         265.7311  -229.8843  -189.3228 C0            1 RES     
    8301 C0         265.8112  -227.5031  -180.4397 C0            1 RES     
    8302 C0         264.9647  -227.5793  -179.1319 C0            1 RES     
    8303 C0         265.7313  -226.8824  -178.0038 C0            1 RES     
    8304 C0         265.2605  -227.1102  -176.5701 C0            1 RES     
    8305 C0         264.0593  -226.2948  -176.1143 C0            1 RES     
    8306 C0         263.7885  -226.6434  -174.6357 C0            1 RES     
    8307 C0         262.7280  -225.7664  -173.9661 C0            1 RES     
    8308 C0         263.1970  -224.3206  -173.7905 C0            1 RES     
    8309 H6         266.6104  -230.3233  -179.7191 H6            1 RES     
    8310 H6         267.4933  -230.5458  -181.2156 H6            1 RES     
    8311 H6         266.7612  -228.4936  -182.0754 H6            1 RES     
    8312 H6         264.5361  -230.1227  -180.6418 H6            1 RES     
    8313 H6         265.3880  -230.5626  -182.1575 H6            1 RES     
    8314 H6         264.3207  -228.5980  -183.3033 H6            1 RES     
    8315 H6         263.4855  -228.1795  -181.7673 H6            1 RES     
    8316 H6         261.9246  -229.3711  -183.1684 H6            1 RES     
    8317 H6         262.2832  -230.3222  -181.7076 H6            1 RES     
    8318 H6         262.1002  -231.7508  -183.7178 H6            1 RES     
    8319 H6         263.7177  -231.8810  -182.9736 H6            1 RES     
    8320 H6         264.7064  -230.4222  -184.7083 H6            1 RES     
    8321 H6         263.8681  -231.8432  -185.4115 H6            1 RES     
    8322 H6         262.7184  -228.9795  -185.2241 H6            1 RES     
    8323 H6         261.8684  -230.3841  -185.9636 H6            1 RES     
    8324 H6         262.9292  -228.8086  -187.5949 H6            1 RES     
    8325 H6         264.5437  -229.1246  -186.8628 H6            1 RES     
    8326 H6         264.3423  -231.5632  -187.5920 H6            1 RES     
    8327 H6         262.6912  -231.2029  -188.2171 H6            1 RES     
    8328 H6         263.6509  -229.6014  -189.8787 H6            1 RES     
    8329 H6         264.2738  -231.2800  -190.0605 H6            1 RES     
    8330 H6         265.8044  -228.9540  -188.7242 H6            1 RES     
    8331 H6         266.3794  -230.6652  -188.8715 H6            1 RES     
    8332 H6         266.1027  -229.6613  -190.3449 H6            1 RES     
    8333 H6         265.2192  -226.9100  -181.1693 H6            1 RES     
    8334 H6         266.7159  -226.8739  -180.2979 H6            1 RES     
    8335 H6         263.9892  -227.0592  -179.2620 H6            1 RES     
    8336 H6         264.7600  -228.6376  -178.8716 H6            1 RES     
    8337 H6         265.8987  -225.8044  -178.2111 H6            1 RES     
    8338 H6         266.6856  -227.3642  -178.0223 H6            1 RES     
    8339 H6         265.0921  -228.1787  -176.4149 H6            1 RES     
    8340 H6         266.1081  -226.8131  -175.9114 H6            1 RES     
    8341 H6         264.3289  -225.2232  -176.2254 H6            1 RES     
    8342 H6         263.1625  -226.5126  -176.7320 H6            1 RES     
    8343 H6         263.4582  -227.7059  -174.5882 H6            1 RES     
    8344 H6         264.7240  -226.5562  -174.0374 H6            1 RES     
    8345 H6         262.5405  -226.1794  -172.9505 H6            1 RES     
    8346 H6         261.7789  -225.8027  -174.5411 H6            1 RES     
    8347 H6         263.3673  -223.8269  -174.7676 H6            1 RES     
    8348 H6         262.4248  -223.7448  -173.2410 H6            1 RES     
    8349 H6         264.1404  -224.2934  -173.2006 H6            1 RES     
    8350 C0         269.4103  -230.8639  -179.4314 C0            1 RES     
    8351 C0         268.8177  -232.3453  -179.4492 C0            1 RES     
    8352 C0         269.8190  -233.2320  -178.6346 C0            1 RES     
    8353 C0         269.5968  -234.7545  -178.7377 C0            1 RES     
    8354 C0         270.5877  -235.5852  -177.9032 C0            1 RES     
    8355 C0         272.0742  -235.4120  -178.2628 C0            1 RES     
    8356 C0         272.4195  -235.6420  -179.7435 C0            1 RES     
    8357 C0         272.0148  -237.0349  -180.2574 C0            1 RES     
    8358 C0         272.3621  -237.2469  -181.7399 C0            1 RES     
    8359 C0         273.8786  -237.2752  -182.0015 C0            1 RES     
    8360 C0         274.2300  -237.6111  -183.4592 C0            1 RES     
    8361 C0         273.7755  -236.5407  -184.4516 C0            1 RES     
    8362 C0         267.3141  -232.7351  -179.1265 C0            1 RES     
    8363 C0         266.7141  -232.5899  -177.6993 C0            1 RES     
    8364 C0         265.7374  -231.4051  -177.5919 C0            1 RES     
    8365 C0         265.1422  -231.1354  -176.2198 C0            1 RES     
    8366 C0         264.0871  -232.1125  -175.7206 C0            1 RES     
    8367 C0         263.5204  -231.5336  -174.4080 C0            1 RES     
    8368 C0         262.3318  -232.3071  -173.8343 C0            1 RES     
    8369 C0         261.0868  -232.1961  -174.7155 C0            1 RES     
    8370 H6         270.0006  -230.7278  -178.4954 H6            1 RES     
    8371 H6         270.2299  -230.8896  -180.1847 H6            1 RES     
    8372 H6         268.9021  -232.6488  -180.5183 H6            1 RES     
    8373 H6         269.7736  -232.9399  -177.5632 H6            1 RES     
    8374 H6         270.8437  -233.0139  -179.0050 H6            1 RES     
    8375 H6         269.6415  -235.0607  -179.8039 H6            1 RES     
    8376 H6         268.6016  -235.0263  -178.3356 H6            1 RES     
    8377 H6         270.3119  -236.6553  -178.0181 H6            1 RES     
    8378 H6         270.4596  -235.3346  -176.8272 H6            1 RES     
    8379 H6         272.6603  -236.1200  -177.6370 H6            1 RES     
    8380 H6         272.4005  -234.3862  -177.9882 H6            1 RES     
    8381 H6         271.9255  -234.8650  -180.3653 H6            1 RES     
    8382 H6         273.5160  -235.5057  -179.8393 H6            1 RES     
    8383 H6         270.9138  -237.1445  -180.1682 H6            1 RES     
    8384 H6         272.4941  -237.8269  -179.6423 H6            1 RES     
    8385 H6         271.9392  -238.2281  -182.0473 H6            1 RES     
    8386 H6         271.8701  -236.4525  -182.3404 H6            1 RES     
    8387 H6         274.3461  -236.3037  -181.7395 H6            1 RES     
    8388 H6         274.3253  -238.0638  -181.3573 H6            1 RES     
    8389 H6         273.7859  -238.5915  -183.7376 H6            1 RES     
    8390 H6         275.3354  -237.6985  -183.5345 H6            1 RES     
    8391 H6         272.6712  -236.4431  -184.4621 H6            1 RES     
    8392 H6         274.2304  -235.5606  -184.1941 H6            1 RES     
    8393 H6         274.1030  -236.8259  -185.4734 H6            1 RES     
    8394 H6         267.2493  -233.8134  -179.3615 H6            1 RES     
    8395 H6         266.5988  -232.3884  -179.8958 H6            1 RES     
    8396 H6         266.0826  -233.4849  -177.5054 H6            1 RES     
    8397 H6         267.5144  -232.5755  -176.9320 H6            1 RES     
    8398 H6         264.9227  -231.5085  -178.3441 H6            1 RES     
    8399 H6         266.2626  -230.4785  -177.7949 H6            1 RES     
    8400 H6         265.9558  -231.0046  -175.4736 H6            1 RES     
    8401 H6         264.5978  -230.1833  -176.3318 H6            1 RES     
    8402 H6         263.2925  -232.1773  -176.4937 H6            1 RES     
    8403 H6         264.5199  -233.1210  -175.5548 H6            1 RES     
    8404 H6         264.3388  -231.5231  -173.6547 H6            1 RES     
    8405 H6         263.1910  -230.4800  -174.5608 H6            1 RES     
    8406 H6         262.0850  -231.8515  -172.8501 H6            1 RES     
    8407 H6         262.6079  -233.3683  -173.6749 H6            1 RES     
    8408 H6         261.2470  -232.6688  -175.7049 H6            1 RES     
    8409 H6         260.2391  -232.7106  -174.2182 H6            1 RES     
    8410 H6         260.8125  -231.1283  -174.8619 H6            1 RES     
    8411 C0         274.6683  -225.2186  -190.3681 C0            1 RES     
    8412 C1         274.2949  -225.0519  -188.8786 C1            1 RES     
    8413 C1         275.0856  -224.1471  -188.2453 C1            1 RES     
    8414 S2         274.7676  -224.0101  -186.6074 S2            1 RES     
    8415 C1         273.5648  -225.2100  -186.6729 C1            1 RES     
    8416 C1         273.4348  -225.7005  -187.9768 C1            1 RES     
    8417 C1         276.0414  -223.6578  -189.1617 C1            1 RES     
    8418 C1         275.8934  -224.3031  -190.3502 C1            1 RES     
    8419 C1         276.8933  -223.9749  -191.2577 C1            1 RES     
    8420 C1         277.7721  -223.0283  -190.7046 C1            1 RES     
    8421 S2         277.3360  -222.6143  -189.1166 S2            1 RES     
    8422 H3         272.7786  -226.5183  -188.2069 H3            1 RES     
    8423 H3         276.9833  -224.3965  -192.2517 H3            1 RES     
    8424 N4         280.2959  -220.7136  -192.2286 N4            1 RES     
    8425 C1         279.1282  -221.1760  -191.6931 C1            1 RES     
    8426 C1         278.9947  -222.5248  -191.3205 C1            1 RES     
    8427 C1         280.0944  -223.3673  -191.4924 C1            1 RES     
    8428 N4         280.1175  -224.6732  -191.1217 N4            1 RES     
    8429 S2         281.6627  -225.1188  -191.5033 S2            1 RES     
    8430 N4         282.3292  -223.7385  -192.1270 N4            1 RES     
    8431 C1         281.3021  -222.8583  -192.0324 C1            1 RES     
    8432 C1         281.3785  -221.5206  -192.4112 C1            1 RES     
    8433 H5         278.2938  -220.4920  -191.5642 H5            1 RES     
    8434 C0         273.6820  -224.7067  -191.4762 C0            1 RES     
    8435 C0         273.3101  -223.2388  -191.9106 C0            1 RES     
    8436 C0         272.1745  -223.4045  -192.9808 C0            1 RES     
    8437 C0         271.6567  -222.1228  -193.6451 C0            1 RES     
    8438 C0         270.5071  -222.4019  -194.6418 C0            1 RES     
    8439 C0         270.8683  -223.2878  -195.8544 C0            1 RES     
    8440 C0         272.0607  -222.7886  -196.6893 C0            1 RES     
    8441 C0         271.8613  -221.3626  -197.2328 C0            1 RES     
    8442 C0         273.0753  -220.8458  -198.0182 C0            1 RES     
    8443 C0         273.3144  -221.6069  -199.3332 C0            1 RES     
    8444 C0         274.4598  -221.0086  -200.1654 C0            1 RES     
    8445 C0         275.8258  -221.1371  -199.4902 C0            1 RES     
    8446 C0         272.9394  -222.1808  -190.8205 C0            1 RES     
    8447 C0         271.6537  -222.3887  -189.9623 C0            1 RES     
    8448 C0         272.0497  -222.4575  -188.4843 C0            1 RES     
    8449 C0         271.0165  -222.9776  -187.4890 C0            1 RES     
    8450 C0         269.9459  -221.9908  -187.0467 C0            1 RES     
    8451 C0         269.0468  -222.7039  -186.0151 C0            1 RES     
    8452 C0         268.0316  -221.7893  -185.3258 C0            1 RES     
    8453 C0         268.7017  -220.7728  -184.3990 C0            1 RES     
    8454 H6         272.7452  -225.1590  -191.2724 H6            1 RES     
    8455 H6         274.0713  -225.1573  -192.4170 H6            1 RES     
    8456 H6         274.2098  -222.8190  -192.4135 H6            1 RES     
    8457 H6         271.3000  -223.9067  -192.5124 H6            1 RES     
    8458 H6         272.5577  -224.0748  -193.7798 H6            1 RES     
    8459 H6         272.4898  -221.5905  -194.1476 H6            1 RES     
    8460 H6         271.2342  -221.4541  -192.8682 H6            1 RES     
    8461 H6         270.1266  -221.4271  -195.0110 H6            1 RES     
    8462 H6         269.6628  -222.8852  -194.1021 H6            1 RES     
    8463 H6         269.9716  -223.3572  -196.5098 H6            1 RES     
    8464 H6         271.0947  -224.3196  -195.5101 H6            1 RES     
    8465 H6         272.9812  -222.8219  -196.0693 H6            1 RES     
    8466 H6         272.1940  -223.4991  -197.5314 H6            1 RES     
    8467 H6         271.7285  -220.6688  -196.3778 H6            1 RES     
    8468 H6         270.9487  -221.3151  -197.8665 H6            1 RES     
    8469 H6         272.8848  -219.7788  -198.2659 H6            1 RES     
    8470 H6         273.9689  -220.8964  -197.3613 H6            1 RES     
    8471 H6         273.5349  -222.6770  -199.1389 H6            1 RES     
    8472 H6         272.3860  -221.5448  -199.9418 H6            1 RES     
    8473 H6         274.2496  -219.9384  -200.3817 H6            1 RES     
    8474 H6         274.5051  -221.5538  -201.1328 H6            1 RES     
    8475 H6         275.8625  -220.5673  -198.5399 H6            1 RES     
    8476 H6         276.0544  -222.2052  -199.2888 H6            1 RES     
    8477 H6         276.6080  -220.7272  -200.1630 H6            1 RES     
    8478 H6         272.8285  -221.1993  -191.3293 H6            1 RES     
    8479 H6         273.8308  -222.0177  -190.1776 H6            1 RES     
    8480 H6         270.9490  -221.5370  -190.0938 H6            1 RES     
    8481 H6         271.1343  -223.3179  -190.2729 H6            1 RES     
    8482 H6         272.5194  -221.5161  -188.1294 H6            1 RES     
    8483 H6         272.8022  -223.2170  -188.4677 H6            1 RES     
    8484 H6         270.5684  -223.8926  -187.8842 H6            1 RES     
    8485 H6         271.5804  -223.2592  -186.5707 H6            1 RES     
    8486 H6         270.4676  -221.1254  -186.5858 H6            1 RES     
    8487 H6         269.3394  -221.6367  -187.9070 H6            1 RES     
    8488 H6         268.4978  -223.5171  -186.5420 H6            1 RES     
    8489 H6         269.6664  -223.1781  -185.2203 H6            1 RES     
    8490 H6         267.3742  -222.4285  -184.6962 H6            1 RES     
    8491 H6         267.4019  -221.2742  -186.0814 H6            1 RES     
    8492 H6         269.3465  -220.0710  -184.9638 H6            1 RES     
    8493 H6         267.9243  -220.1826  -183.8728 H6            1 RES     
    8494 H6         269.3185  -221.2990  -183.6364 H6            1 RES     
    8495 C0         275.0121  -226.7512  -190.5373 C0            1 RES     
    8496 C0         274.1619  -227.8077  -191.3782 C0            1 RES     
    8497 C0         274.5397  -229.2221  -190.8223 C0            1 RES     
    8498 C0         274.0445  -230.4203  -191.6572 C0            1 RES     
    8499 C0         274.4175  -231.7895  -191.0619 C0            1 RES     
    8500 C0         275.9240  -232.0600  -190.9000 C0            1 RES     
    8501 C0         276.7624  -231.8733  -192.1755 C0            1 RES     
    8502 C0         276.2941  -232.7506  -193.3499 C0            1 RES     
    8503 C0         277.1389  -232.5484  -194.6183 C0            1 RES     
    8504 C0         278.5891  -233.0380  -194.4562 C0            1 RES     
    8505 C0         279.4004  -232.9529  -195.7585 C0            1 RES     
    8506 C0         279.6211  -231.5186  -196.2393 C0            1 RES     
    8507 C0         272.6066  -227.7051  -191.6739 C0            1 RES     
    8508 C0         271.5431  -227.8534  -190.5492 C0            1 RES     
    8509 C0         270.8916  -226.5092  -190.1778 C0            1 RES     
    8510 C0         269.8815  -226.5325  -189.0424 C0            1 RES     
    8511 C0         268.5273  -227.1626  -189.3358 C0            1 RES     
    8512 C0         267.6346  -226.9089  -188.1038 C0            1 RES     
    8513 C0         266.1771  -227.3399  -188.2765 C0            1 RES     
    8514 C0         265.4360  -226.4832  -189.3041 C0            1 RES     
    8515 H6         275.2020  -227.1736  -189.5231 H6            1 RES     
    8516 H6         276.0337  -226.8133  -190.9760 H6            1 RES     
    8517 H6         274.5894  -227.7311  -192.4045 H6            1 RES     
    8518 H6         274.1435  -229.3236  -189.7888 H6            1 RES     
    8519 H6         275.6481  -229.2811  -190.7705 H6            1 RES     
    8520 H6         274.4349  -230.3326  -192.6928 H6            1 RES     
    8521 H6         272.9381  -230.4295  -191.6986 H6            1 RES     
    8522 H6         273.9794  -232.5731  -191.7162 H6            1 RES     
    8523 H6         273.9365  -231.8981  -190.0649 H6            1 RES     
    8524 H6         276.0449  -233.1028  -190.5332 H6            1 RES     
    8525 H6         276.3349  -231.3884  -190.1162 H6            1 RES     
    8526 H6         276.7375  -230.8062  -192.4836 H6            1 RES     
    8527 H6         277.8090  -232.1242  -191.9078 H6            1 RES     
    8528 H6         275.2519  -232.4727  -193.6123 H6            1 RES     
    8529 H6         276.3052  -233.8230  -193.0581 H6            1 RES     
    8530 H6         276.6646  -233.1347  -195.4352 H6            1 RES     
    8531 H6         277.1112  -231.4743  -194.8998 H6            1 RES     
    8532 H6         279.1189  -232.4607  -193.6707 H6            1 RES     
    8533 H6         278.5604  -234.1056  -194.1467 H6            1 RES     
    8534 H6         278.8958  -233.5408  -196.5558 H6            1 RES     
    8535 H6         280.3973  -233.4073  -195.5722 H6            1 RES     
    8536 H6         278.6610  -231.0261  -196.4938 H6            1 RES     
    8537 H6         280.1434  -230.9276  -195.4571 H6            1 RES     
    8538 H6         280.2512  -231.5316  -197.1533 H6            1 RES     
    8539 H6         272.4020  -228.5316  -192.3790 H6            1 RES     
    8540 H6         272.3466  -226.8775  -192.3604 H6            1 RES     
    8541 H6         270.7050  -228.4621  -190.9545 H6            1 RES     
    8542 H6         271.9597  -228.3994  -189.6787 H6            1 RES     
    8543 H6         270.4365  -226.0399  -191.0795 H6            1 RES     
    8544 H6         271.6453  -225.8309  -189.7938 H6            1 RES     
    8545 H6         270.3441  -226.9756  -188.1338 H6            1 RES     
    8546 H6         269.6505  -225.4719  -188.8500 H6            1 RES     
    8547 H6         268.1070  -226.6602  -190.2325 H6            1 RES     
    8548 H6         268.6252  -228.2497  -189.5372 H6            1 RES     
    8549 H6         268.0720  -227.4600  -187.2423 H6            1 RES     
    8550 H6         267.6339  -225.8252  -187.8438 H6            1 RES     
    8551 H6         265.6716  -227.1962  -187.2964 H6            1 RES     
    8552 H6         266.1258  -228.4129  -188.5484 H6            1 RES     
    8553 H6         265.8624  -226.6081  -190.3192 H6            1 RES     
    8554 H6         264.3701  -226.7891  -189.3354 H6            1 RES     
    8555 H6         265.4851  -225.4097  -189.0177 H6            1 RES     
    8556 C0         285.2481  -220.0195  -195.9256 C0            1 RES     
    8557 C1         284.3672  -220.2536  -194.6787 C1            1 RES     
    8558 C1         285.0251  -219.9806  -193.5220 C1            1 RES     
    8559 S2         284.1289  -220.3121  -192.1475 S2            1 RES     
    8560 C1         282.8150  -220.8854  -193.0617 C1            1 RES     
    8561 C1         283.1019  -220.8106  -194.4291 C1            1 RES     
    8562 C1         286.3463  -219.5912  -193.8310 C1            1 RES     
    8563 C1         286.5375  -219.6836  -195.1748 C1            1 RES     
    8564 C1         287.8590  -219.4526  -195.5375 C1            1 RES     
    8565 C1         288.6362  -219.1481  -194.4073 C1            1 RES     
    8566 S2         287.7155  -219.1798  -192.9808 S2            1 RES     
    8567 H3         282.4252  -221.1971  -195.1674 H3            1 RES     
    8568 H3         288.2359  -219.5061  -196.5519 H3            1 RES     
    8569 N4         292.0001  -217.5462  -193.9969 N4            1 RES     
    8570 C1         290.6451  -217.7030  -194.0560 C1            1 RES     
    8571 C1         290.0809  -218.9481  -194.3836 C1            1 RES     
    8572 C1         290.9434  -220.0193  -194.6229 C1            1 RES     
    8573 N4         290.5292  -221.2841  -194.8916 N4            1 RES     
    8574 S2         291.9597  -222.1031  -195.0131 S2            1 RES     
    8575 N4         293.1053  -220.9394  -194.7454 N4            1 RES     
    8576 C1         292.3463  -219.8354  -194.5360 C1            1 RES     
    8577 C1         292.8595  -218.5768  -194.2336 C1            1 RES     
    8578 H5         290.0012  -216.8510  -193.8556 H5            1 RES     
    8579 C0         284.9158  -218.8327  -196.8973 C0            1 RES     
    8580 C0         285.0795  -217.2782  -196.7010 C0            1 RES     
    8581 C0         284.4489  -216.6353  -197.9861 C0            1 RES     
    8582 C0         284.5313  -215.1087  -198.1083 C0            1 RES     
    8583 C0         283.8343  -214.5840  -199.3856 C0            1 RES     
    8584 C0         284.4362  -215.0624  -200.7253 C0            1 RES     
    8585 C0         285.9389  -214.7793  -200.8983 C0            1 RES     
    8586 C0         286.2901  -213.2865  -200.7686 C0            1 RES     
    8587 C0         287.7965  -213.0133  -200.8858 C0            1 RES     
    8588 C0         288.3574  -213.3037  -202.2882 C0            1 RES     
    8589 C0         289.8389  -212.9187  -202.4263 C0            1 RES     
    8590 C0         290.7650  -213.7636  -201.5506 C0            1 RES     
    8591 C0         284.5552  -216.6054  -195.3905 C0            1 RES     
    8592 C0         283.0246  -216.6107  -195.0904 C0            1 RES     
    8593 C0         282.7830  -217.3263  -193.7579 C0            1 RES     
    8594 C0         281.3548  -217.7411  -193.4158 C0            1 RES     
    8595 C0         280.4442  -216.6494  -192.8733 C0            1 RES     
    8596 C0         279.0788  -217.2927  -192.5526 C0            1 RES     
    8597 C0         278.1047  -216.3690  -191.8176 C0            1 RES     
    8598 C0         278.5645  -216.0569  -190.3920 C0            1 RES     
    8599 H6         283.8994  -218.9507  -197.1740 H6            1 RES     
    8600 H6         285.5327  -219.0393  -197.8009 H6            1 RES     
    8601 H6         286.1730  -217.0713  -196.7037 H6            1 RES     
    8602 H6         283.3731  -216.9108  -198.0435 H6            1 RES     
    8603 H6         284.9560  -217.0785  -198.8698 H6            1 RES     
    8604 H6         285.5901  -214.7804  -198.0772 H6            1 RES     
    8605 H6         283.9975  -214.6449  -197.2544 H6            1 RES     
    8606 H6         283.8554  -213.4749  -199.3592 H6            1 RES     
    8607 H6         282.7617  -214.8788  -199.3658 H6            1 RES     
    8608 H6         283.8775  -214.5672  -201.5506 H6            1 RES     
    8609 H6         284.2746  -216.1557  -200.8392 H6            1 RES     
    8610 H6         286.5100  -215.3597  -200.1433 H6            1 RES     
    8611 H6         286.2309  -215.1508  -201.9024 H6            1 RES     
    8612 H6         285.9898  -212.9342  -199.7608 H6            1 RES     
    8613 H6         285.7346  -212.6921  -201.5267 H6            1 RES     
    8614 H6         287.9600  -211.9361  -200.6641 H6            1 RES     
    8615 H6         288.3253  -213.6115  -200.1143 H6            1 RES     
    8616 H6         288.2408  -214.3760  -202.5489 H6            1 RES     
    8617 H6         287.7811  -212.6995  -203.0224 H6            1 RES     
    8618 H6         289.9733  -211.8424  -202.1817 H6            1 RES     
    8619 H6         290.1382  -213.0718  -203.4857 H6            1 RES     
    8620 H6         290.5511  -213.6134  -200.4732 H6            1 RES     
    8621 H6         290.6535  -214.8397  -201.8022 H6            1 RES     
    8622 H6         291.8181  -213.4635  -201.7334 H6            1 RES     
    8623 H6         284.8733  -215.5410  -195.4092 H6            1 RES     
    8624 H6         285.1348  -217.0134  -194.5349 H6            1 RES     
    8625 H6         282.6358  -215.5714  -195.0020 H6            1 RES     
    8626 H6         282.4769  -217.1157  -195.9118 H6            1 RES     
    8627 H6         283.2716  -216.8077  -192.9062 H6            1 RES     
    8628 H6         283.2800  -218.2637  -193.8898 H6            1 RES     
    8629 H6         280.9072  -218.2307  -194.2842 H6            1 RES     
    8630 H6         281.4356  -218.5085  -192.6126 H6            1 RES     
    8631 H6         280.9208  -216.2523  -191.9520 H6            1 RES     
    8632 H6         280.3188  -215.8239  -193.6054 H6            1 RES     
    8633 H6         278.6153  -217.6119  -193.5136 H6            1 RES     
    8634 H6         279.2150  -218.2042  -191.9271 H6            1 RES     
    8635 H6         277.1291  -216.8980  -191.7426 H6            1 RES     
    8636 H6         277.9531  -215.4321  -192.3937 H6            1 RES     
    8637 H6         279.5172  -215.4915  -190.3866 H6            1 RES     
    8638 H6         277.7947  -215.4442  -189.8803 H6            1 RES     
    8639 H6         278.6992  -217.0010  -189.8182 H6            1 RES     
    8640 C0         285.2818  -221.4108  -196.6730 C0            1 RES     
    8641 C0         284.6187  -221.7212  -198.0908 C0            1 RES     
    8642 C0         284.4245  -223.2737  -198.1578 C0            1 RES     
    8643 C0         284.0446  -223.8386  -199.5414 C0            1 RES     
    8644 C0         283.8406  -225.3639  -199.5555 C0            1 RES     
    8645 C0         285.0621  -226.2055  -199.1447 C0            1 RES     
    8646 C0         286.3523  -225.9103  -199.9275 C0            1 RES     
    8647 C0         286.2007  -226.0905  -201.4482 C0            1 RES     
    8648 C0         287.4974  -225.7868  -202.2162 C0            1 RES     
    8649 C0         288.6200  -226.7971  -201.9191 C0            1 RES     
    8650 C0         289.8740  -226.5705  -202.7778 C0            1 RES     
    8651 C0         290.5775  -225.2461  -202.4808 C0            1 RES     
    8652 C0         283.3690  -220.9606  -198.7045 C0            1 RES     
    8653 C0         281.9455  -221.0879  -198.0919 C0            1 RES     
    8654 C0         281.5159  -219.8164  -197.3382 C0            1 RES     
    8655 C0         280.1636  -219.8591  -196.6460 C0            1 RES     
    8656 C0         278.9301  -219.8059  -197.5364 C0            1 RES     
    8657 C0         277.7060  -219.6856  -196.6056 C0            1 RES     
    8658 C0         276.3771  -219.4642  -197.3303 C0            1 RES     
    8659 C0         276.3085  -218.0974  -198.0130 C0            1 RES     
    8660 H6         284.9598  -222.1959  -195.9498 H6            1 RES     
    8661 H6         286.3522  -221.6870  -196.8070 H6            1 RES     
    8662 H6         285.4201  -221.4568  -198.8188 H6            1 RES     
    8663 H6         283.6428  -223.5736  -197.4268 H6            1 RES     
    8664 H6         285.3807  -223.7486  -197.8495 H6            1 RES     
    8665 H6         284.8189  -223.5478  -200.2820 H6            1 RES     
    8666 H6         283.0710  -223.4269  -199.8711 H6            1 RES     
    8667 H6         283.5326  -225.6541  -200.5828 H6            1 RES     
    8668 H6         282.9960  -225.6262  -198.8811 H6            1 RES     
    8669 H6         284.7950  -227.2774  -199.2721 H6            1 RES     
    8670 H6         285.2701  -226.0468  -198.0651 H6            1 RES     
    8671 H6         286.6874  -224.8728  -199.7138 H6            1 RES     
    8672 H6         287.1261  -226.6030  -199.5382 H6            1 RES     
    8673 H6         285.4349  -225.3780  -201.8196 H6            1 RES     
    8674 H6         285.8585  -227.1219  -201.6818 H6            1 RES     
    8675 H6         287.2646  -225.8371  -203.3022 H6            1 RES     
    8676 H6         287.8211  -224.7515  -201.9775 H6            1 RES     
    8677 H6         288.9126  -226.7640  -200.8494 H6            1 RES     
    8678 H6         288.2364  -227.8158  -202.1458 H6            1 RES     
    8679 H6         289.6062  -226.6179  -203.8557 H6            1 RES     
    8680 H6         290.5903  -227.3927  -202.5630 H6            1 RES     
    8681 H6         289.9294  -224.3809  -202.7268 H6            1 RES     
    8682 H6         290.8678  -225.1974  -201.4096 H6            1 RES     
    8683 H6         291.4958  -225.1722  -203.1004 H6            1 RES     
    8684 H6         283.2800  -221.3558  -199.7331 H6            1 RES     
    8685 H6         283.5897  -219.9131  -198.9834 H6            1 RES     
    8686 H6         281.2215  -221.1666  -198.9326 H6            1 RES     
    8687 H6         281.8549  -222.0132  -197.4877 H6            1 RES     
    8688 H6         281.5674  -218.9326  -198.0138 H6            1 RES     
    8689 H6         282.1884  -219.6395  -196.5063 H6            1 RES     
    8690 H6         280.1219  -220.7255  -195.9506 H6            1 RES     
    8691 H6         280.1168  -218.9247  -196.0627 H6            1 RES     
    8692 H6         279.0181  -218.9078  -198.1837 H6            1 RES     
    8693 H6         278.8557  -220.7111  -198.1742 H6            1 RES     
    8694 H6         277.6363  -220.6198  -196.0060 H6            1 RES     
    8695 H6         277.8435  -218.8391  -195.8940 H6            1 RES     
    8696 H6         275.5731  -219.4938  -196.5625 H6            1 RES     
    8697 H6         276.2004  -220.2783  -198.0609 H6            1 RES     
    8698 H6         277.0599  -218.0106  -198.8228 H6            1 RES     
    8699 H6         275.3015  -217.9603  -198.4576 H6            1 RES     
    8700 H6         276.4779  -217.2870  -197.2703 H6            1 RES     
    8701 C0         298.0255  -217.4826  -195.5348 C0            1 RES     
    8702 C1         296.6979  -217.7933  -194.8090 C1            1 RES     
    8703 C1         296.8919  -218.1984  -193.5270 C1            1 RES     
    8704 S2         295.4790  -218.6317  -192.7405 S2            1 RES     
    8705 C1         294.5378  -218.3294  -194.1238 C1            1 RES     
    8706 C1         295.3470  -217.8972  -195.1802 C1            1 RES     
    8707 C1         298.2789  -218.2393  -193.2676 C1            1 RES     
    8708 C1         298.9564  -217.9244  -194.4046 C1            1 RES     
    8709 C1         300.3296  -218.0836  -194.2626 C1            1 RES     
    8710 C1         300.6474  -218.4961  -192.9575 C1            1 RES     
    8711 S2         299.2587  -218.6794  -191.9976 S2            1 RES     
    8712 H3         294.9469  -217.7279  -196.1619 H3            1 RES     
    8713 H3         301.0522  -217.9172  -195.0525 H3            1 RES     
    8714 N4         303.8443  -218.4866  -191.0005 N4            1 RES     
    8715 C1         302.6231  -218.1052  -191.4774 C1            1 RES     
    8716 C1         301.9721  -218.8608  -192.4679 C1            1 RES     
    8717 C1         302.5987  -220.0194  -192.9302 C1            1 RES     
    8718 N4         302.0541  -220.8673  -193.8401 N4            1 RES     
    8719 S2         303.1973  -222.0569  -193.9389 S2            1 RES     
    8720 N4         304.3728  -221.5638  -192.8837 N4            1 RES     
    8721 C1         303.8577  -220.4045  -192.4049 C1            1 RES     
    8722 C1         304.4760  -219.6099  -191.4431 C1            1 RES     
    8723 H5         302.1585  -217.2026  -191.0900 H5            1 RES     
    8724 C0         298.3730  -215.9998  -195.9132 C0            1 RES     
    8725 C0         298.7865  -214.7847  -194.9997 C0            1 RES     
    8726 C0         298.8703  -213.5540  -195.9697 C0            1 RES     
    8727 C0         299.3300  -212.2232  -195.3615 C0            1 RES     
    8728 C0         299.3252  -211.0729  -196.3958 C0            1 RES     
    8729 C0         300.2822  -211.2435  -197.5961 C0            1 RES     
    8730 C0         301.7543  -211.4896  -197.2212 C0            1 RES     
    8731 C0         302.3477  -210.3736  -196.3432 C0            1 RES     
    8732 C0         303.7990  -210.6490  -195.9243 C0            1 RES     
    8733 C0         304.7856  -210.6204  -197.1038 C0            1 RES     
    8734 C0         306.2477  -210.7829  -196.6587 C0            1 RES     
    8735 C0         306.5437  -212.1547  -196.0516 C0            1 RES     
    8736 C0         297.9533  -214.4645  -193.7158 C0            1 RES     
    8737 C0         296.4680  -214.0121  -193.8640 C0            1 RES     
    8738 C0         295.5709  -215.0025  -193.1154 C0            1 RES     
    8739 C0         294.0698  -214.9559  -193.3862 C0            1 RES     
    8740 C0         293.2859  -213.8668  -192.6687 C0            1 RES     
    8741 C0         291.7986  -214.0331  -193.0447 C0            1 RES     
    8742 C0         290.8452  -213.1325  -192.2559 C0            1 RES     
    8743 C0         290.7655  -213.5242  -190.7789 C0            1 RES     
    8744 H6         297.5481  -215.6336  -196.4692 H6            1 RES     
    8745 H6         299.2325  -216.0917  -196.6151 H6            1 RES     
    8746 H6         299.8096  -215.0056  -194.6215 H6            1 RES     
    8747 H6         297.8714  -213.3779  -196.4254 H6            1 RES     
    8748 H6         299.5715  -213.8170  -196.7903 H6            1 RES     
    8749 H6         300.3358  -212.3382  -194.9087 H6            1 RES     
    8750 H6         298.6211  -211.9222  -194.5639 H6            1 RES     
    8751 H6         299.5794  -210.1317  -195.8659 H6            1 RES     
    8752 H6         298.2945  -210.9415  -196.7936 H6            1 RES     
    8753 H6         300.2170  -210.3257  -198.2221 H6            1 RES     
    8754 H6         299.9404  -212.0893  -198.2302 H6            1 RES     
    8755 H6         301.8393  -212.4613  -196.6905 H6            1 RES     
    8756 H6         302.3267  -211.5703  -198.1686 H6            1 RES     
    8757 H6         301.7622  -210.3076  -195.4036 H6            1 RES     
    8758 H6         302.2809  -209.3945  -196.8662 H6            1 RES     
    8759 H6         304.0967  -209.8550  -195.2051 H6            1 RES     
    8760 H6         303.8358  -211.6262  -195.3986 H6            1 RES     
    8761 H6         304.5463  -211.4139  -197.8418 H6            1 RES     
    8762 H6         304.6931  -209.6335  -197.6075 H6            1 RES     
    8763 H6         306.5101  -209.9869  -195.9280 H6            1 RES     
    8764 H6         306.8966  -210.6585  -197.5524 H6            1 RES     
    8765 H6         305.9633  -212.3192  -195.1215 H6            1 RES     
    8766 H6         306.3044  -212.9565  -196.7822 H6            1 RES     
    8767 H6         307.6220  -212.2181  -195.7953 H6            1 RES     
    8768 H6         298.4804  -213.6551  -193.1668 H6            1 RES     
    8769 H6         298.0447  -215.3252  -193.0191 H6            1 RES     
    8770 H6         296.3165  -213.0024  -193.4205 H6            1 RES     
    8771 H6         296.1895  -213.9638  -194.9363 H6            1 RES     
    8772 H6         295.7879  -215.0280  -192.0267 H6            1 RES     
    8773 H6         295.8587  -215.9488  -193.5216 H6            1 RES     
    8774 H6         293.9025  -214.9146  -194.4653 H6            1 RES     
    8775 H6         293.6567  -215.9261  -193.0276 H6            1 RES     
    8776 H6         293.4379  -214.0169  -191.5789 H6            1 RES     
    8777 H6         293.6441  -212.8546  -192.9523 H6            1 RES     
    8778 H6         291.6912  -213.8068  -194.1298 H6            1 RES     
    8779 H6         291.4728  -215.0867  -192.8882 H6            1 RES     
    8780 H6         289.8277  -213.2580  -192.6873 H6            1 RES     
    8781 H6         291.1436  -212.0684  -192.3628 H6            1 RES     
    8782 H6         291.7391  -213.3867  -190.2687 H6            1 RES     
    8783 H6         290.0133  -212.8898  -190.2676 H6            1 RES     
    8784 H6         290.4515  -214.5876  -190.6817 H6            1 RES     
    8785 C0         298.0406  -218.4384  -196.7924 C0            1 RES     
    8786 C0         297.9361  -217.9735  -198.3153 C0            1 RES     
    8787 C0         297.4450  -219.2202  -199.1257 C0            1 RES     
    8788 C0         297.5236  -219.0907  -200.6603 C0            1 RES     
    8789 C0         297.0092  -220.3287  -201.4159 C0            1 RES     
    8790 C0         297.7520  -221.6452  -201.1261 C0            1 RES     
    8791 C0         299.2763  -221.5923  -201.3212 C0            1 RES     
    8792 C0         299.6978  -221.1666  -202.7387 C0            1 RES     
    8793 C0         301.2239  -221.1137  -202.9157 C0            1 RES     
    8794 C0         301.8857  -222.5004  -202.8250 C0            1 RES     
    8795 C0         303.3923  -222.4673  -203.1254 C0            1 RES     
    8796 C0         304.1972  -221.6836  -202.0885 C0            1 RES     
    8797 C0         297.2298  -216.6463  -198.8221 C0            1 RES     
    8798 C0         295.6904  -216.4466  -198.7310 C0            1 RES     
    8799 C0         295.2929  -215.4515  -197.6260 C0            1 RES     
    8800 C0         293.8046  -215.2323  -197.4102 C0            1 RES     
    8801 C0         293.0646  -214.4265  -198.4686 C0            1 RES     
    8802 C0         291.6333  -214.1960  -197.9420 C0            1 RES     
    8803 C0         290.7803  -213.2673  -198.8082 C0            1 RES     
    8804 C0         291.2898  -211.8254  -198.7897 C0            1 RES     
    8805 H6         297.2954  -219.2487  -196.6157 H6            1 RES     
    8806 H6         298.9876  -219.0228  -196.7508 H6            1 RES     
    8807 H6         298.9958  -217.7869  -198.6059 H6            1 RES     
    8808 H6         296.3940  -219.4456  -198.8434 H6            1 RES     
    8809 H6         298.0725  -220.0874  -198.8270 H6            1 RES     
    8810 H6         298.5699  -218.8670  -200.9568 H6            1 RES     
    8811 H6         296.8751  -218.2644  -201.0105 H6            1 RES     
    8812 H6         297.0730  -220.1113  -202.5035 H6            1 RES     
    8813 H6         295.9324  -220.4790  -201.1813 H6            1 RES     
    8814 H6         297.3260  -222.4293  -201.7897 H6            1 RES     
    8815 H6         297.5492  -221.9577  -200.0795 H6            1 RES     
    8816 H6         299.7215  -220.8927  -200.5818 H6            1 RES     
    8817 H6         299.6609  -222.6087  -201.0998 H6            1 RES     
    8818 H6         299.3177  -220.1421  -202.9338 H6            1 RES     
    8819 H6         299.2554  -221.8514  -203.4942 H6            1 RES     
    8820 H6         301.4311  -220.6964  -203.9252 H6            1 RES     
    8821 H6         301.6487  -220.4205  -202.1589 H6            1 RES     
    8822 H6         301.7345  -222.9489  -201.8216 H6            1 RES     
    8823 H6         301.4065  -223.1615  -203.5798 H6            1 RES     
    8824 H6         303.5657  -222.0374  -204.1358 H6            1 RES     
    8825 H6         303.7653  -223.5142  -203.1264 H6            1 RES     
    8826 H6         303.9069  -220.6137  -202.0768 H6            1 RES     
    8827 H6         304.0469  -222.1182  -201.0773 H6            1 RES     
    8828 H6         305.2766  -221.7419  -202.3423 H6            1 RES     
    8829 H6         297.4663  -216.5995  -199.9010 H6            1 RES     
    8830 H6         297.7683  -215.7259  -198.5280 H6            1 RES     
    8831 H6         295.3565  -215.9587  -199.6732 H6            1 RES     
    8832 H6         295.1674  -217.4217  -198.6584 H6            1 RES     
    8833 H6         295.7998  -214.4732  -197.7885 H6            1 RES     
    8834 H6         295.6061  -215.8326  -196.6605 H6            1 RES     
    8835 H6         293.3025  -216.2058  -197.2204 H6            1 RES     
    8836 H6         293.7410  -214.6096  -196.5026 H6            1 RES     
    8837 H6         293.5961  -213.4591  -198.5909 H6            1 RES     
    8838 H6         293.0479  -214.9607  -199.4413 H6            1 RES     
    8839 H6         291.1288  -215.1848  -197.8718 H6            1 RES     
    8840 H6         291.6643  -213.7611  -196.9164 H6            1 RES     
    8841 H6         289.7547  -213.2638  -198.3780 H6            1 RES     
    8842 H6         290.7288  -213.6532  -199.8456 H6            1 RES     
    8843 H6         292.2975  -211.7457  -199.2435 H6            1 RES     
    8844 H6         290.5956  -211.1843  -199.3708 H6            1 RES     
    8845 H6         291.3291  -211.4442  -197.7456 H6            1 RES     
    8846 C0         309.8408  -220.1073  -190.7018 C0            1 RES     
    8847 C1         308.3021  -220.1404  -190.5720 C1            1 RES     
    8848 C1         307.8824  -221.0046  -189.6117 C1            1 RES     
    8849 S2         306.2165  -221.1332  -189.5080 S2            1 RES     
    8850 C1         305.9860  -220.0490  -190.7973 C1            1 RES     
    8851 C1         307.2187  -219.6068  -191.2899 C1            1 RES     
    8852 C1         309.0098  -221.6377  -189.0452 C1            1 RES     
    8853 C1         310.1305  -221.2209  -189.6942 C1            1 RES     
    8854 C1         311.2654  -221.9106  -189.2849 C1            1 RES     
    8855 C1         310.9457  -222.8346  -188.2758 C1            1 RES     
    8856 S2         309.2887  -222.8160  -187.9048 S2            1 RES     
    8857 H3         307.2843  -218.9746  -192.1549 H3            1 RES     
    8858 H3         312.2573  -221.7585  -189.6933 H3            1 RES     
    8859 N4         313.0339  -224.6742  -185.7647 N4            1 RES     
    8860 C1         312.2153  -223.7325  -186.3189 C1            1 RES     
    8861 C1         311.8554  -223.8042  -187.6758 C1            1 RES     
    8862 C1         312.3394  -224.8748  -188.4297 C1            1 RES     
    8863 N4         312.0224  -225.0931  -189.7317 N4            1 RES     
    8864 S2         312.8182  -226.5054  -190.0542 S2            1 RES     
    8865 N4         313.5628  -226.8750  -188.6233 N4            1 RES     
    8866 C1         313.1719  -225.8503  -187.8259 C1            1 RES     
    8867 C1         313.5226  -225.7229  -186.4844 C1            1 RES     
    8868 H5         311.8484  -222.9165  -185.7023 H5            1 RES     
    8869 C0         310.6281  -218.8229  -190.2623 C0            1 RES     
    8870 C0         310.9080  -218.2406  -188.8255 C0            1 RES     
    8871 C0         311.6360  -216.8728  -189.0735 C0            1 RES     
    8872 C0         312.1027  -216.1018  -187.8324 C0            1 RES     
    8873 C0         312.7590  -214.7488  -188.1948 C0            1 RES     
    8874 C0         314.0466  -214.8318  -189.0441 C0            1 RES     
    8875 C0         315.1591  -215.7133  -188.4497 C0            1 RES     
    8876 C0         315.5916  -215.2702  -187.0407 C0            1 RES     
    8877 C0         316.6618  -216.1846  -186.4275 C0            1 RES     
    8878 C0         318.0117  -216.1136  -187.1611 C0            1 RES     
    8879 C0         319.1064  -216.9435  -186.4716 C0            1 RES     
    8880 C0         318.8284  -218.4469  -186.4972 C0            1 RES     
    8881 C0         309.7313  -218.1027  -187.8049 C0            1 RES     
    8882 C0         308.5638  -217.1165  -188.1162 C0            1 RES     
    8883 C0         307.2497  -217.9022  -188.1615 C0            1 RES     
    8884 C0         306.0263  -217.2184  -188.7651 C0            1 RES     
    8885 C0         305.2863  -216.2384  -187.8665 C0            1 RES     
    8886 C0         304.0691  -215.7072  -188.6524 C0            1 RES     
    8887 C0         303.1081  -214.8527  -187.8227 C0            1 RES     
    8888 C0         302.3706  -215.6725  -186.7620 C0            1 RES     
    8889 H6         310.1909  -218.0121  -190.7870 H6            1 RES     
    8890 H6         311.6504  -218.9746  -190.6767 H6            1 RES     
    8891 H6         311.6240  -218.9370  -188.3347 H6            1 RES     
    8892 H6         310.9621  -216.1972  -189.6443 H6            1 RES     
    8893 H6         312.5258  -217.0732  -189.7080 H6            1 RES     
    8894 H6         312.7974  -216.7263  -187.2347 H6            1 RES     
    8895 H6         311.2236  -215.8579  -187.2024 H6            1 RES     
    8896 H6         312.9866  -214.2121  -187.2507 H6            1 RES     
    8897 H6         312.0242  -214.1201  -188.7449 H6            1 RES     
    8898 H6         314.4373  -213.7986  -189.1795 H6            1 RES     
    8899 H6         313.8029  -215.2180  -190.0568 H6            1 RES     
    8900 H6         314.8115  -216.7674  -188.4146 H6            1 RES     
    8901 H6         316.0239  -215.6651  -189.1435 H6            1 RES     
    8902 H6         314.7149  -215.3236  -186.3636 H6            1 RES     
    8903 H6         315.9541  -214.2191  -187.0610 H6            1 RES     
    8904 H6         316.8213  -215.8564  -185.3772 H6            1 RES     
    8905 H6         316.2719  -217.2240  -186.4118 H6            1 RES     
    8906 H6         317.9118  -216.4562  -188.2118 H6            1 RES     
    8907 H6         318.3455  -215.0530  -187.1681 H6            1 RES     
    8908 H6         319.2303  -216.6047  -185.4199 H6            1 RES     
    8909 H6         320.0639  -216.7647  -187.0068 H6            1 RES     
    8910 H6         317.9089  -218.6980  -185.9310 H6            1 RES     
    8911 H6         318.7238  -218.7992  -187.5453 H6            1 RES     
    8912 H6         319.6764  -218.9853  -186.0245 H6            1 RES     
    8913 H6         310.1658  -217.7864  -186.8325 H6            1 RES     
    8914 H6         309.3488  -219.1205  -187.5765 H6            1 RES     
    8915 H6         308.4782  -216.3421  -187.3211 H6            1 RES     
    8916 H6         308.7466  -216.6019  -189.0814 H6            1 RES     
    8917 H6         307.0106  -218.3802  -187.1883 H6            1 RES     
    8918 H6         307.4564  -218.6846  -188.8604 H6            1 RES     
    8919 H6         306.3095  -216.7483  -189.7101 H6            1 RES     
    8920 H6         305.3018  -218.0292  -189.0068 H6            1 RES     
    8921 H6         304.9610  -216.8006  -186.9656 H6            1 RES     
    8922 H6         305.9415  -215.3972  -187.5563 H6            1 RES     
    8923 H6         304.4492  -215.0972  -189.5031 H6            1 RES     
    8924 H6         303.4835  -216.5521  -189.0811 H6            1 RES     
    8925 H6         302.3412  -214.4392  -188.5141 H6            1 RES     
    8926 H6         303.6521  -214.0058  -187.3542 H6            1 RES     
    8927 H6         303.0700  -216.0869  -186.0094 H6            1 RES     
    8928 H6         301.6390  -215.0257  -186.2365 H6            1 RES     
    8929 H6         301.8165  -216.5097  -187.2425 H6            1 RES     
    8930 C0         310.1360  -220.5038  -192.2022 C0            1 RES     
    8931 C0         310.7433  -219.5373  -193.3172 C0            1 RES     
    8932 C0         310.3467  -220.1542  -194.7009 C0            1 RES     
    8933 C0         311.0477  -219.5404  -195.9297 C0            1 RES     
    8934 C0         310.6106  -220.1602  -197.2687 C0            1 RES     
    8935 C0         310.8683  -221.6698  -197.4225 C0            1 RES     
    8936 C0         312.3174  -222.1150  -197.1649 C0            1 RES     
    8937 C0         313.3442  -221.4116  -198.0700 C0            1 RES     
    8938 C0         314.7878  -221.8639  -197.7966 C0            1 RES     
    8939 C0         315.0357  -223.3356  -198.1730 C0            1 RES     
    8940 C0         316.5059  -223.7551  -198.0188 C0            1 RES     
    8941 C0         316.9913  -223.7315  -196.5693 C0            1 RES     
    8942 C0         310.6057  -217.9568  -193.3341 C0            1 RES     
    8943 C0         309.2399  -217.2519  -193.5700 C0            1 RES     
    8944 C0         308.6720  -216.6286  -192.2823 C0            1 RES     
    8945 C0         307.3072  -215.9686  -192.3895 C0            1 RES     
    8946 C0         307.2404  -214.6355  -193.1213 C0            1 RES     
    8947 C0         305.8071  -214.0941  -192.9437 C0            1 RES     
    8948 C0         305.5912  -212.6799  -193.4856 C0            1 RES     
    8949 C0         306.3582  -211.6273  -192.6838 C0            1 RES     
    8950 H6         309.2219  -220.9918  -192.6137 H6            1 RES     
    8951 H6         310.8356  -221.3699  -192.1827 H6            1 RES     
    8952 H6         311.8446  -219.6639  -193.2026 H6            1 RES     
    8953 H6         309.2476  -220.0614  -194.8380 H6            1 RES     
    8954 H6         310.5975  -221.2364  -194.6740 H6            1 RES     
    8955 H6         312.1476  -219.6280  -195.8068 H6            1 RES     
    8956 H6         310.7892  -218.4680  -196.0244 H6            1 RES     
    8957 H6         311.1425  -219.6197  -198.0807 H6            1 RES     
    8958 H6         309.5240  -219.9767  -197.4193 H6            1 RES     
    8959 H6         310.5747  -221.9616  -198.4546 H6            1 RES     
    8960 H6         310.2074  -222.2273  -196.7250 H6            1 RES     
    8961 H6         312.5797  -221.9295  -196.1014 H6            1 RES     
    8962 H6         312.3486  -223.2105  -197.3352 H6            1 RES     
    8963 H6         313.3084  -220.3199  -197.8725 H6            1 RES     
    8964 H6         313.0940  -221.5799  -199.1398 H6            1 RES     
    8965 H6         315.4613  -221.2302  -198.4138 H6            1 RES     
    8966 H6         315.0236  -221.6823  -196.7264 H6            1 RES     
    8967 H6         314.4077  -224.0146  -197.5603 H6            1 RES     
    8968 H6         314.7576  -223.4701  -199.2411 H6            1 RES     
    8969 H6         317.1524  -223.0978  -198.6400 H6            1 RES     
    8970 H6         316.6074  -224.7957  -198.3954 H6            1 RES     
    8971 H6         316.9645  -222.7049  -196.1514 H6            1 RES     
    8972 H6         316.3640  -224.4015  -195.9435 H6            1 RES     
    8973 H6         318.0415  -224.0895  -196.5288 H6            1 RES     
    8974 H6         311.2505  -217.6300  -194.1704 H6            1 RES     
    8975 H6         311.1750  -217.4607  -192.5258 H6            1 RES     
    8976 H6         309.4196  -216.3822  -194.2399 H6            1 RES     
    8977 H6         308.5285  -217.9276  -194.0864 H6            1 RES     
    8978 H6         309.4050  -215.9131  -191.8452 H6            1 RES     
    8979 H6         308.4882  -217.4064  -191.5495 H6            1 RES     
    8980 H6         306.5688  -216.6913  -192.7999 H6            1 RES     
    8981 H6         307.0322  -215.7213  -191.3510 H6            1 RES     
    8982 H6         307.9772  -213.9523  -192.6485 H6            1 RES     
    8983 H6         307.4888  -214.7545  -194.1965 H6            1 RES     
    8984 H6         305.1101  -214.7877  -193.4636 H6            1 RES     
    8985 H6         305.5287  -214.0844  -191.8646 H6            1 RES     
    8986 H6         304.5076  -212.4498  -193.3864 H6            1 RES     
    8987 H6         305.8668  -212.6357  -194.5579 H6            1 RES     
    8988 H6         307.4536  -211.7707  -192.7702 H6            1 RES     
    8989 H6         306.1086  -210.6183  -193.0712 H6            1 RES     
    8990 H6         306.0681  -211.6734  -191.6111 H6            1 RES     
    8991 C0         317.9108  -228.3744  -184.6701 C0            1 RES     
    8992 C1         316.4789  -227.8841  -184.9782 C1            1 RES     
    8993 C1         315.5359  -228.8090  -184.6608 C1            1 RES     
    8994 S2         313.9796  -228.3456  -185.0676 S2            1 RES     
    8995 C1         314.5199  -226.8788  -185.7365 C1            1 RES     
    8996 C1         315.9116  -226.7781  -185.6328 C1            1 RES     
    8997 C1         316.1798  -229.9648  -184.1686 C1            1 RES     
    8998 C1         317.5273  -229.7909  -184.2391 C1            1 RES     
    8999 C1         318.2270  -230.9440  -183.9045 C1            1 RES     
    9000 C1         317.3409  -231.9739  -183.5463 C1            1 RES     
    9001 S2         315.7203  -231.4791  -183.6564 S2            1 RES     
    9002 H3         316.4496  -225.9568  -186.0669 H3            1 RES     
    9003 H3         319.3065  -231.0348  -183.9235 H3            1 RES     
    9004 N4         317.8123  -235.1963  -181.6904 N4            1 RES     
    9005 C1         317.5076  -233.8913  -181.9516 C1            1 RES     
    9006 C1         317.7028  -233.3522  -183.2350 C1            1 RES     
    9007 C1         318.1935  -234.1938  -184.2349 C1            1 RES     
    9008 N4         318.3731  -233.8161  -185.5266 N4            1 RES     
    9009 S2         318.8971  -235.2161  -186.2317 S2            1 RES     
    9010 N4         318.9185  -236.3029  -184.9839 N4            1 RES     
    9011 C1         318.4837  -235.5502  -183.9432 C1            1 RES     
    9012 C1         318.2986  -236.0325  -182.6502 C1            1 RES     
    9013 H5         317.1190  -233.2652  -181.1531 H5            1 RES     
    9014 C0         318.7258  -227.7052  -183.5079 C0            1 RES     
    9015 C0         318.5409  -227.8016  -181.9464 C0            1 RES     
    9016 C0         319.5911  -226.8009  -181.3479 C0            1 RES     
    9017 C0         319.6915  -226.7350  -179.8189 C0            1 RES     
    9018 C0         320.7194  -225.6814  -179.3435 C0            1 RES     
    9019 C0         322.1837  -225.9311  -179.7670 C0            1 RES     
    9020 C0         322.7483  -227.3058  -179.3674 C0            1 RES     
    9021 C0         322.6798  -227.5686  -177.8525 C0            1 RES     
    9022 C0         323.1920  -228.9626  -177.4627 C0            1 RES     
    9023 C0         324.7007  -229.1421  -177.7017 C0            1 RES     
    9024 C0         325.2235  -230.4985  -177.2024 C0            1 RES     
    9025 C0         324.6523  -231.6866  -177.9772 C0            1 RES     
    9026 C0         317.1205  -227.6042  -181.3228 C0            1 RES     
    9027 C0         316.4188  -226.2169  -181.4482 C0            1 RES     
    9028 C0         315.0895  -226.3986  -182.1871 C0            1 RES     
    9029 C0         314.3856  -225.1509  -182.7132 C0            1 RES     
    9030 C0         313.5895  -224.3440  -181.6980 C0            1 RES     
    9031 C0         312.9289  -223.1675  -182.4469 C0            1 RES     
    9032 C0         311.9348  -222.3641  -181.6052 C0            1 RES     
    9033 C0         310.6786  -223.1689  -181.2655 C0            1 RES     
    9034 H6         318.7209  -226.6633  -183.7030 H6            1 RES     
    9035 H6         319.7673  -228.0675  -183.6615 H6            1 RES     
    9036 H6         318.8332  -228.8352  -181.6553 H6            1 RES     
    9037 H6         319.3632  -225.7730  -181.7056 H6            1 RES     
    9038 H6         320.5900  -227.0806  -181.7460 H6            1 RES     
    9039 H6         319.9388  -227.7356  -179.4096 H6            1 RES     
    9040 H6         318.7136  -226.4201  -179.4022 H6            1 RES     
    9041 H6         320.6711  -225.6275  -178.2362 H6            1 RES     
    9042 H6         320.4186  -224.6789  -179.7207 H6            1 RES     
    9043 H6         322.8146  -225.1350  -179.3125 H6            1 RES     
    9044 H6         322.2780  -225.8253  -180.8690 H6            1 RES     
    9045 H6         322.1907  -228.1011  -179.9055 H6            1 RES     
    9046 H6         323.8033  -227.3411  -179.7101 H6            1 RES     
    9047 H6         321.6196  -227.5276  -177.5296 H6            1 RES     
    9048 H6         323.2443  -226.7864  -177.2992 H6            1 RES     
    9049 H6         322.9949  -229.1007  -176.3772 H6            1 RES     
    9050 H6         322.6075  -229.7231  -178.0220 H6            1 RES     
    9051 H6         324.9479  -229.0382  -178.7786 H6            1 RES     
    9052 H6         325.2364  -228.3458  -177.1404 H6            1 RES     
    9053 H6         324.9965  -230.6148  -176.1201 H6            1 RES     
    9054 H6         326.3279  -230.5098  -177.3265 H6            1 RES     
    9055 H6         323.5536  -231.7623  -177.8495 H6            1 RES     
    9056 H6         324.8921  -231.5902  -179.0575 H6            1 RES     
    9057 H6         325.1046  -232.6257  -177.5955 H6            1 RES     
    9058 H6         317.1969  -227.8264  -180.2369 H6            1 RES     
    9059 H6         316.4639  -228.4223  -181.6889 H6            1 RES     
    9060 H6         316.2020  -225.7915  -180.4427 H6            1 RES     
    9061 H6         317.0747  -225.5057  -181.9902 H6            1 RES     
    9062 H6         314.3882  -227.0604  -181.6365 H6            1 RES     
    9063 H6         315.3748  -226.9085  -183.0825 H6            1 RES     
    9064 H6         315.1133  -224.5219  -183.2316 H6            1 RES     
    9065 H6         313.6540  -225.5024  -183.4760 H6            1 RES     
    9066 H6         312.8211  -225.0220  -181.2698 H6            1 RES     
    9067 H6         314.2391  -223.9646  -180.8811 H6            1 RES     
    9068 H6         313.7372  -222.4856  -182.7962 H6            1 RES     
    9069 H6         312.3872  -223.5346  -183.3482 H6            1 RES     
    9070 H6         311.6131  -221.4868  -182.2087 H6            1 RES     
    9071 H6         312.4243  -221.9938  -180.6800 H6            1 RES     
    9072 H6         310.9159  -224.0432  -180.6280 H6            1 RES     
    9073 H6         309.9626  -222.5238  -180.7169 H6            1 RES     
    9074 H6         310.1870  -223.5229  -182.1992 H6            1 RES     
    9075 C0         318.6752  -228.3062  -186.0509 C0            1 RES     
    9076 C0         319.8690  -227.3083  -186.4047 C0            1 RES     
    9077 C0         319.9211  -227.2175  -187.9672 C0            1 RES     
    9078 C0         321.1651  -226.5193  -188.5530 C0            1 RES     
    9079 C0         321.1630  -226.4315  -190.0894 C0            1 RES     
    9080 C0         321.1189  -227.7768  -190.8358 C0            1 RES     
    9081 C0         322.2129  -228.7814  -190.4375 C0            1 RES     
    9082 C0         323.6404  -228.2370  -190.6214 C0            1 RES     
    9083 C0         324.7217  -229.2511  -190.2142 C0            1 RES     
    9084 C0         324.7647  -230.4831  -191.1358 C0            1 RES     
    9085 C0         325.9237  -231.4374  -190.8084 C0            1 RES     
    9086 C0         325.7934  -232.0960  -189.4350 C0            1 RES     
    9087 C0         320.1029  -225.8868  -185.7402 C0            1 RES     
    9088 C0         319.1324  -224.6959  -185.9806 C0            1 RES     
    9089 C0         318.2582  -224.3947  -184.7501 C0            1 RES     
    9090 C0         317.2281  -223.2874  -184.9010 C0            1 RES     
    9091 C0         317.7509  -221.8583  -184.9391 C0            1 RES     
    9092 C0         316.5217  -220.9269  -184.9187 C0            1 RES     
    9093 C0         316.8549  -219.4388  -184.7975 C0            1 RES     
    9094 C0         317.4582  -219.0878  -183.4366 C0            1 RES     
    9095 H6         317.9125  -228.2507  -186.8622 H6            1 RES     
    9096 H6         319.1002  -229.3175  -186.2426 H6            1 RES     
    9097 H6         320.7791  -227.8608  -186.0753 H6            1 RES     
    9098 H6         319.0143  -226.6873  -188.3305 H6            1 RES     
    9099 H6         319.8947  -228.2536  -188.3681 H6            1 RES     
    9100 H6         322.0793  -227.0404  -188.1993 H6            1 RES     
    9101 H6         321.2091  -225.4654  -188.2164 H6            1 RES     
    9102 H6         322.0762  -225.8788  -190.3974 H6            1 RES     
    9103 H6         320.2927  -225.8228  -190.4198 H6            1 RES     
    9104 H6         321.1971  -227.5645  -191.9246 H6            1 RES     
    9105 H6         320.1317  -228.2575  -190.6669 H6            1 RES     
    9106 H6         322.0708  -229.0849  -189.3783 H6            1 RES     
    9107 H6         322.0648  -229.6803  -191.0701 H6            1 RES     
    9108 H6         323.7728  -227.3491  -189.9685 H6            1 RES     
    9109 H6         323.7996  -227.9208  -191.6750 H6            1 RES     
    9110 H6         325.7055  -228.7370  -190.2769 H6            1 RES     
    9111 H6         324.5525  -229.5507  -189.1581 H6            1 RES     
    9112 H6         323.8132  -231.0514  -191.0855 H6            1 RES     
    9113 H6         324.9057  -230.1282  -192.1801 H6            1 RES     
    9114 H6         326.8902  -230.8917  -190.8710 H6            1 RES     
    9115 H6         325.9315  -232.2433  -191.5736 H6            1 RES     
    9116 H6         325.8331  -231.3440  -188.6214 H6            1 RES     
    9117 H6         324.8395  -232.6614  -189.3692 H6            1 RES     
    9118 H6         326.6358  -232.8041  -189.2869 H6            1 RES     
    9119 H6         321.0791  -225.5515  -186.1360 H6            1 RES     
    9120 H6         320.4038  -225.9462  -184.6774 H6            1 RES     
    9121 H6         319.7483  -223.7789  -186.1110 H6            1 RES     
    9122 H6         318.5502  -224.8405  -186.9132 H6            1 RES     
    9123 H6         318.8996  -224.1962  -183.8615 H6            1 RES     
    9124 H6         317.6343  -225.2526  -184.5256 H6            1 RES     
    9125 H6         316.5699  -223.4993  -185.7714 H6            1 RES     
    9126 H6         316.6299  -223.3321  -183.9760 H6            1 RES     
    9127 H6         318.3746  -221.7015  -184.0336 H6            1 RES     
    9128 H6         318.3682  -221.6804  -185.8442 H6            1 RES     
    9129 H6         315.9498  -221.0910  -185.8585 H6            1 RES     
    9130 H6         315.8519  -221.1897  -184.0677 H6            1 RES     
    9131 H6         315.8996  -218.8774  -184.8931 H6            1 RES     
    9132 H6         317.5315  -219.1309  -185.6191 H6            1 RES     
    9133 H6         318.4382  -219.5831  -183.2878 H6            1 RES     
    9134 H6         317.6110  -217.9907  -183.3758 H6            1 RES     
    9135 H6         316.7682  -219.3923  -182.6193 H6            1 RES     
    9136 C0         320.9167  -240.5579  -181.1521 C0            1 RES     
    9137 C1         319.8679  -239.5032  -181.5685 C1            1 RES     
    9138 C1         318.6967  -240.0665  -181.9637 C1            1 RES     
    9139 S2         317.5696  -238.9554  -182.5091 S2            1 RES     
    9140 C1         318.6394  -237.6549  -182.2739 C1            1 RES     
    9141 C1         319.8634  -238.1136  -181.7749 C1            1 RES     
    9142 C1         318.8223  -241.4710  -181.8982 C1            1 RES     
    9143 C1         320.0914  -241.7901  -181.5261 C1            1 RES     
    9144 C1         320.3293  -243.1582  -181.5791 C1            1 RES     
    9145 C1         319.1696  -243.8471  -181.9722 C1            1 RES     
    9146 S2         317.8756  -242.7879  -182.2673 S2            1 RES     
    9147 H3         320.6960  -237.4512  -181.6322 H3            1 RES     
    9148 H3         321.2803  -243.6255  -181.3532 H3            1 RES     
    9149 N4         318.1482  -247.4452  -181.7245 N4            1 RES     
    9150 C1         318.2678  -246.1159  -181.4366 C1            1 RES     
    9151 C1         319.0651  -245.2780  -182.2354 C1            1 RES     
    9152 C1         319.7090  -245.8390  -183.3397 C1            1 RES     
    9153 N4         320.4599  -245.1319  -184.2227 N4            1 RES     
    9154 S2         320.8941  -246.2895  -185.3196 S2            1 RES     
    9155 N4         320.1829  -247.6676  -184.7421 N4            1 RES     
    9156 C1         319.5531  -247.2180  -183.6286 C1            1 RES     
    9157 C1         318.7737  -248.0138  -182.7933 C1            1 RES     
    9158 H5         317.7463  -245.7088  -180.5747 H5            1 RES     
    9159 C0         321.3365  -240.6803  -179.6449 C0            1 RES     
    9160 C0         320.5374  -241.2356  -178.4060 C0            1 RES     
    9161 C0         321.4618  -240.9630  -177.1677 C0            1 RES     
    9162 C0         320.9661  -241.4715  -175.8083 C0            1 RES     
    9163 C0         321.9307  -241.1023  -174.6567 C0            1 RES     
    9164 C0         323.3487  -241.7080  -174.7466 C0            1 RES     
    9165 C0         323.3914  -243.2405  -174.8797 C0            1 RES     
    9166 C0         322.6776  -243.9662  -173.7254 C0            1 RES     
    9167 C0         322.6730  -245.4928  -173.8895 C0            1 RES     
    9168 C0         324.0739  -246.1180  -173.7786 C0            1 RES     
    9169 C0         324.0442  -247.6539  -173.8294 C0            1 RES     
    9170 C0         323.5750  -248.2030  -175.1773 C0            1 RES     
    9171 C0         319.0685  -240.7604  -178.1579 C0            1 RES     
    9172 C0         318.7986  -239.2616  -177.8213 C0            1 RES     
    9173 C0         317.8615  -238.6760  -178.8819 C0            1 RES     
    9174 C0         317.7160  -237.1585  -178.9506 C0            1 RES     
    9175 C0         316.7858  -236.5207  -177.9291 C0            1 RES     
    9176 C0         316.7506  -235.0035  -178.2084 C0            1 RES     
    9177 C0         315.7109  -234.2362  -177.3884 C0            1 RES     
    9178 C0         314.2778  -234.5887  -177.7925 C0            1 RES     
    9179 H6         321.6396  -239.7110  -179.3411 H6            1 RES     
    9180 H6         322.2463  -241.3217  -179.6665 H6            1 RES     
    9181 H6         320.4551  -242.3363  -178.5489 H6            1 RES     
    9182 H6         321.6264  -239.8678  -177.0674 H6            1 RES     
    9183 H6         322.4478  -241.4329  -177.3715 H6            1 RES     
    9184 H6         320.8046  -242.5679  -175.8473 H6            1 RES     
    9185 H6         319.9993  -240.9852  -175.5672 H6            1 RES     
    9186 H6         321.4649  -241.4209  -173.7013 H6            1 RES     
    9187 H6         322.0322  -239.9956  -174.6036 H6            1 RES     
    9188 H6         323.9100  -241.4085  -173.8335 H6            1 RES     
    9189 H6         323.8887  -241.2701  -175.6132 H6            1 RES     
    9190 H6         322.9285  -243.5372  -175.8445 H6            1 RES     
    9191 H6         324.4598  -243.5390  -174.9110 H6            1 RES     
    9192 H6         321.6135  -243.6540  -173.7098 H6            1 RES     
    9193 H6         323.1377  -243.6886  -172.7518 H6            1 RES     
    9194 H6         322.0406  -245.9153  -173.0784 H6            1 RES     
    9195 H6         322.2022  -245.7423  -174.8635 H6            1 RES     
    9196 H6         324.7401  -245.7465  -174.5846 H6            1 RES     
    9197 H6         324.5082  -245.8205  -172.7993 H6            1 RES     
    9198 H6         323.3911  -248.0454  -173.0192 H6            1 RES     
    9199 H6         325.0763  -248.0253  -173.6506 H6            1 RES     
    9200 H6         322.5274  -247.9101  -175.3909 H6            1 RES     
    9201 H6         324.2344  -247.8341  -175.9915 H6            1 RES     
    9202 H6         323.6209  -249.3120  -175.1581 H6            1 RES     
    9203 H6         318.6613  -241.3558  -177.3128 H6            1 RES     
    9204 H6         318.4447  -241.1000  -179.0123 H6            1 RES     
    9205 H6         318.3048  -239.1623  -176.8286 H6            1 RES     
    9206 H6         319.7544  -238.7001  -177.7893 H6            1 RES     
    9207 H6         316.8728  -239.1811  -178.8960 H6            1 RES     
    9208 H6         318.3547  -238.9115  -179.8010 H6            1 RES     
    9209 H6         318.7085  -236.7024  -178.9169 H6            1 RES     
    9210 H6         317.2844  -236.9303  -179.9517 H6            1 RES     
    9211 H6         315.7815  -236.9729  -178.0724 H6            1 RES     
    9212 H6         317.1292  -236.7135  -176.8908 H6            1 RES     
    9213 H6         317.7603  -234.5898  -177.9856 H6            1 RES     
    9214 H6         316.5392  -234.8105  -179.2848 H6            1 RES     
    9215 H6         315.8548  -233.1519  -177.5902 H6            1 RES     
    9216 H6         315.8668  -234.4156  -176.3038 H6            1 RES     
    9217 H6         314.0458  -235.6514  -177.5824 H6            1 RES     
    9218 H6         313.5662  -233.9589  -177.2209 H6            1 RES     
    9219 H6         314.1269  -234.3916  -178.8774 H6            1 RES     
    9220 C0         322.1560  -240.3016  -182.0976 C0            1 RES     
    9221 C0         323.5817  -239.7546  -181.6345 C0            1 RES     
    9222 C0         324.2614  -239.1550  -182.9115 C0            1 RES     
    9223 C0         325.7565  -238.8051  -182.7686 C0            1 RES     
    9224 C0         326.3769  -238.1973  -184.0390 C0            1 RES     
    9225 C0         326.3323  -239.0852  -185.2954 C0            1 RES     
    9226 C0         326.9301  -240.4915  -185.1234 C0            1 RES     
    9227 C0         328.3973  -240.4806  -184.6593 C0            1 RES     
    9228 C0         328.9781  -241.8936  -184.4873 C0            1 RES     
    9229 C0         329.1052  -242.6549  -185.8190 C0            1 RES     
    9230 C0         329.7999  -244.0171  -185.6676 C0            1 RES     
    9231 C0         328.9988  -245.0132  -184.8291 C0            1 RES     
    9232 C0         323.8447  -238.8421  -180.3636 C0            1 RES     
    9233 C0         323.3365  -237.3747  -180.2844 C0            1 RES     
    9234 C0         322.1399  -237.2196  -179.3286 C0            1 RES     
    9235 C0         321.5249  -235.8336  -179.2265 C0            1 RES     
    9236 C0         322.3232  -234.7775  -178.4753 C0            1 RES     
    9237 C0         321.4242  -233.5296  -178.3591 C0            1 RES     
    9238 C0         322.0038  -232.4081  -177.4950 C0            1 RES     
    9239 C0         322.0862  -232.7964  -176.0180 C0            1 RES     
    9240 H6         321.8058  -239.6937  -182.9641 H6            1 RES     
    9241 H6         322.3866  -241.2646  -182.6070 H6            1 RES     
    9242 H6         324.1425  -240.6792  -181.3649 H6            1 RES     
    9243 H6         323.7119  -238.2392  -183.2192 H6            1 RES     
    9244 H6         324.1656  -239.9017  -183.7289 H6            1 RES     
    9245 H6         326.3184  -239.7125  -182.4630 H6            1 RES     
    9246 H6         325.8972  -238.0272  -181.9933 H6            1 RES     
    9247 H6         327.4354  -237.9478  -183.8119 H6            1 RES     
    9248 H6         325.8644  -237.2384  -184.2735 H6            1 RES     
    9249 H6         326.8764  -238.5540  -186.1068 H6            1 RES     
    9250 H6         325.2783  -239.1971  -185.6278 H6            1 RES     
    9251 H6         326.3204  -241.0679  -184.3951 H6            1 RES     
    9252 H6         326.8470  -240.9951  -186.1081 H6            1 RES     
    9253 H6         328.4560  -239.9879  -183.6663 H6            1 RES     
    9254 H6         329.0228  -239.9015  -185.3725 H6            1 RES     
    9255 H6         329.9949  -241.7882  -184.0501 H6            1 RES     
    9256 H6         328.3463  -242.4555  -183.7671 H6            1 RES     
    9257 H6         328.1101  -242.8147  -186.2829 H6            1 RES     
    9258 H6         329.7194  -242.0389  -186.5114 H6            1 RES     
    9259 H6         330.8082  -243.8782  -185.2205 H6            1 RES     
    9260 H6         329.9286  -244.4516  -186.6824 H6            1 RES     
    9261 H6         328.8816  -244.6594  -183.7850 H6            1 RES     
    9262 H6         327.9961  -245.1748  -185.2791 H6            1 RES     
    9263 H6         329.5358  -245.9847  -184.8022 H6            1 RES     
    9264 H6         324.9458  -238.7733  -180.2932 H6            1 RES     
    9265 H6         323.6831  -239.3712  -179.4057 H6            1 RES     
    9266 H6         324.1407  -236.7631  -179.8191 H6            1 RES     
    9267 H6         323.1507  -236.9638  -181.2973 H6            1 RES     
    9268 H6         322.4079  -237.5904  -178.3132 H6            1 RES     
    9269 H6         321.3048  -237.8098  -179.6891 H6            1 RES     
    9270 H6         321.2319  -235.4745  -180.2370 H6            1 RES     
    9271 H6         320.6180  -235.9729  -178.6152 H6            1 RES     
    9272 H6         322.5594  -235.1835  -177.4690 H6            1 RES     
    9273 H6         323.2688  -234.5370  -179.0043 H6            1 RES     
    9274 H6         321.2461  -233.1368  -179.3843 H6            1 RES     
    9275 H6         320.4341  -233.8054  -177.9282 H6            1 RES     
    9276 H6         321.3129  -231.5400  -177.5732 H6            1 RES     
    9277 H6         322.9984  -232.1058  -177.8785 H6            1 RES     
    9278 H6         322.7929  -233.6348  -175.8581 H6            1 RES     
    9279 H6         322.4418  -231.9257  -175.4298 H6            1 RES     
    9280 H6         321.0820  -233.0892  -175.6402 H6            1 RES     
    9281 C0         319.5205  -253.4003  -182.8769 C0            1 RES     
    9282 C1         318.9812  -251.9610  -183.0298 C1            1 RES     
    9283 C1         317.9660  -251.8818  -183.9288 C1            1 RES     
    9284 S2         317.4200  -250.3204  -184.1867 S2            1 RES     
    9285 C1         318.5708  -249.6703  -183.1172 C1            1 RES     
    9286 C1         319.3661  -250.6875  -182.5783 C1            1 RES     
    9287 C1         317.7412  -253.1637  -184.4754 C1            1 RES     
    9288 C1         318.6575  -254.0329  -183.9697 C1            1 RES     
    9289 C1         318.5875  -255.2837  -184.5713 C1            1 RES     
    9290 C1         317.5538  -255.3180  -185.5224 C1            1 RES     
    9291 S2         316.7491  -253.8269  -185.6342 S2            1 RES     
    9292 H3         320.2001  -250.4697  -181.9385 H3            1 RES     
    9293 H3         319.2443  -256.1139  -184.3407 H3            1 RES     
    9294 N4         315.7477  -258.1376  -187.2071 N4            1 RES     
    9295 C1         316.0360  -257.1327  -186.3289 C1            1 RES     
    9296 C1         317.2468  -256.4248  -186.4215 C1            1 RES     
    9297 C1         318.1307  -256.7635  -187.4476 C1            1 RES     
    9298 N4         319.3041  -256.1224  -187.6833 N4            1 RES     
    9299 S2         319.8657  -256.9023  -189.0280 S2            1 RES     
    9300 N4         318.6988  -258.0318  -189.3459 N4            1 RES     
    9301 C1         317.7993  -257.7977  -188.3586 C1            1 RES     
    9302 C1         316.5994  -258.4885  -188.2112 C1            1 RES     
    9303 H5         315.3224  -256.8879  -185.5469 H5            1 RES     
    9304 C0         319.2767  -254.1808  -181.5375 C0            1 RES     
    9305 C0         317.9542  -254.7962  -180.9425 C0            1 RES     
    9306 C0         318.3540  -255.3275  -179.5211 C0            1 RES     
    9307 C0         317.2654  -256.0552  -178.7225 C0            1 RES     
    9308 C0         317.7564  -256.4878  -177.3209 C0            1 RES     
    9309 C0         318.9234  -257.4995  -177.2995 C0            1 RES     
    9310 C0         318.6742  -258.7929  -178.0951 C0            1 RES     
    9311 C0         317.4232  -259.5574  -177.6268 C0            1 RES     
    9312 C0         317.1453  -260.8178  -178.4585 C0            1 RES     
    9313 C0         318.2139  -261.9094  -178.2793 C0            1 RES     
    9314 C0         317.8670  -263.2077  -179.0253 C0            1 RES     
    9315 C0         317.8554  -263.0442  -180.5456 C0            1 RES     
    9316 C0         316.6508  -253.9333  -180.9013 C0            1 RES     
    9317 C0         316.6099  -252.6561  -180.0071 C0            1 RES     
    9318 C0         316.3192  -251.4402  -180.8921 C0            1 RES     
    9319 C0         316.5525  -250.0522  -180.3022 C0            1 RES     
    9320 C0         315.4625  -249.5137  -179.3870 C0            1 RES     
    9321 C0         315.8768  -248.0936  -178.9479 C0            1 RES     
    9322 C0         314.7969  -247.3334  -178.1746 C0            1 RES     
    9323 C0         313.5980  -246.9731  -179.0545 C0            1 RES     
    9324 H6         319.6428  -253.5596  -180.7605 H6            1 RES     
    9325 H6         319.9553  -255.0608  -181.6074 H6            1 RES     
    9326 H6         317.6929  -255.6674  -181.5837 H6            1 RES     
    9327 H6         318.7042  -254.4764  -178.8969 H6            1 RES     
    9328 H6         319.2100  -256.0242  -179.6487 H6            1 RES     
    9329 H6         316.8936  -256.9297  -179.2941 H6            1 RES     
    9330 H6         316.4155  -255.3643  -178.5506 H6            1 RES     
    9331 H6         316.8952  -256.9227  -176.7728 H6            1 RES     
    9332 H6         318.0714  -255.5873  -176.7483 H6            1 RES     
    9333 H6         319.1325  -257.7621  -176.2385 H6            1 RES     
    9334 H6         319.8425  -257.0194  -177.6984 H6            1 RES     
    9335 H6         318.5738  -258.5461  -179.1731 H6            1 RES     
    9336 H6         319.5742  -259.4314  -177.9765 H6            1 RES     
    9337 H6         316.5363  -258.9033  -177.7514 H6            1 RES     
    9338 H6         317.5135  -259.8228  -176.5507 H6            1 RES     
    9339 H6         316.1689  -261.2314  -178.1242 H6            1 RES     
    9340 H6         317.0519  -260.5240  -179.5251 H6            1 RES     
    9341 H6         319.2072  -261.5539  -178.6235 H6            1 RES     
    9342 H6         318.2833  -262.1501  -177.1961 H6            1 RES     
    9343 H6         316.8793  -263.5868  -178.6832 H6            1 RES     
    9344 H6         318.6359  -263.9685  -178.7702 H6            1 RES     
    9345 H6         317.0689  -262.3334  -180.8701 H6            1 RES     
    9346 H6         318.8453  -262.6855  -180.8998 H6            1 RES     
    9347 H6         317.6432  -264.0257  -181.0190 H6            1 RES     
    9348 H6         315.8238  -254.5907  -180.5572 H6            1 RES     
    9349 H6         316.3539  -253.7027  -181.9469 H6            1 RES     
    9350 H6         315.8015  -252.7327  -179.2457 H6            1 RES     
    9351 H6         317.5749  -252.5322  -179.4751 H6            1 RES     
    9352 H6         315.3302  -251.5094  -181.3920 H6            1 RES     
    9353 H6         317.0679  -251.5065  -181.6526 H6            1 RES     
    9354 H6         317.5263  -250.0335  -179.8068 H6            1 RES     
    9355 H6         316.6105  -249.3509  -181.1655 H6            1 RES     
    9356 H6         314.5221  -249.4869  -179.9773 H6            1 RES     
    9357 H6         315.3190  -250.1650  -178.4992 H6            1 RES     
    9358 H6         316.7825  -248.1831  -178.3060 H6            1 RES     
    9359 H6         316.1533  -247.4772  -179.8336 H6            1 RES     
    9360 H6         315.2448  -246.3797  -177.8184 H6            1 RES     
    9361 H6         314.4708  -247.9205  -177.2905 H6            1 RES     
    9362 H6         313.0730  -247.8787  -179.4171 H6            1 RES     
    9363 H6         312.8781  -246.3660  -178.4690 H6            1 RES     
    9364 H6         313.9327  -246.3725  -179.9297 H6            1 RES     
    9365 C0         321.0546  -253.3060  -183.2417 C0            1 RES     
    9366 C0         322.2668  -253.5158  -182.2255 C0            1 RES     
    9367 C0         323.5076  -252.8054  -182.8644 C0            1 RES     
    9368 C0         324.8637  -253.1002  -182.1920 C0            1 RES     
    9369 C0         326.0506  -252.3632  -182.8370 C0            1 RES     
    9370 C0         326.3071  -252.6795  -184.3213 C0            1 RES     
    9371 C0         326.4617  -254.1728  -184.6542 C0            1 RES     
    9372 C0         327.5918  -254.8614  -183.8687 C0            1 RES     
    9373 C0         327.7298  -256.3542  -184.2090 C0            1 RES     
    9374 C0         328.1970  -256.5981  -185.6552 C0            1 RES     
    9375 C0         328.4561  -258.0817  -185.9602 C0            1 RES     
    9376 C0         327.1912  -258.9386  -185.9063 C0            1 RES     
    9377 C0         322.2051  -253.2633  -180.6604 C0            1 RES     
    9378 C0         322.0454  -251.8369  -180.0623 C0            1 RES     
    9379 C0         320.6366  -251.5951  -179.4914 C0            1 RES     
    9380 C0         320.3545  -250.2078  -178.9387 C0            1 RES     
    9381 C0         321.0064  -249.8476  -177.6112 C0            1 RES     
    9382 C0         320.4348  -248.4804  -177.1834 C0            1 RES     
    9383 C0         320.8616  -248.0227  -175.7875 C0            1 RES     
    9384 C0         320.2696  -248.8991  -174.6826 C0            1 RES     
    9385 H6         321.2166  -252.3529  -183.7971 H6            1 RES     
    9386 H6         321.2469  -254.0462  -184.0511 H6            1 RES     
    9387 H6         322.4569  -254.6132  -182.2669 H6            1 RES     
    9388 H6         323.3406  -251.7066  -182.8564 H6            1 RES     
    9389 H6         323.5773  -253.1327  -183.9240 H6            1 RES     
    9390 H6         325.0444  -254.1956  -182.1947 H6            1 RES     
    9391 H6         324.8574  -252.7478  -181.1423 H6            1 RES     
    9392 H6         326.9618  -252.6141  -182.2529 H6            1 RES     
    9393 H6         325.8976  -251.2661  -182.7376 H6            1 RES     
    9394 H6         327.2289  -252.1394  -184.6299 H6            1 RES     
    9395 H6         325.4718  -252.2751  -184.9319 H6            1 RES     
    9396 H6         325.5040  -254.6992  -184.4541 H6            1 RES     
    9397 H6         326.6623  -254.2369  -185.7431 H6            1 RES     
    9398 H6         327.3638  -254.8006  -182.7841 H6            1 RES     
    9399 H6         328.5584  -254.3437  -184.0506 H6            1 RES     
    9400 H6         328.4893  -256.7869  -183.5220 H6            1 RES     
    9401 H6         326.7587  -256.8572  -184.0151 H6            1 RES     
    9402 H6         327.4553  -256.2111  -186.3839 H6            1 RES     
    9403 H6         329.1536  -256.0515  -185.8056 H6            1 RES     
    9404 H6         329.2116  -258.4856  -185.2517 H6            1 RES     
    9405 H6         328.8729  -258.1532  -186.9879 H6            1 RES     
    9406 H6         326.7553  -258.9509  -184.8870 H6            1 RES     
    9407 H6         326.4369  -258.5552  -186.6260 H6            1 RES     
    9408 H6         327.4449  -259.9837  -186.1820 H6            1 RES     
    9409 H6         323.1757  -253.6316  -180.2804 H6            1 RES     
    9410 H6         321.5678  -253.9924  -180.1257 H6            1 RES     
    9411 H6         322.7163  -251.7641  -179.1780 H6            1 RES     
    9412 H6         322.3680  -251.0637  -180.7886 H6            1 RES     
    9413 H6         320.3952  -252.3646  -178.7234 H6            1 RES     
    9414 H6         319.9018  -251.6743  -180.2848 H6            1 RES     
    9415 H6         320.5690  -249.4408  -179.7145 H6            1 RES     
    9416 H6         319.2743  -250.2072  -178.7186 H6            1 RES     
    9417 H6         320.7325  -250.6329  -176.8752 H6            1 RES     
    9418 H6         322.1115  -249.8034  -177.7052 H6            1 RES     
    9419 H6         320.7650  -247.7214  -177.9263 H6            1 RES     
    9420 H6         319.3207  -248.5050  -177.2007 H6            1 RES     
    9421 H6         320.4678  -246.9928  -175.6426 H6            1 RES     
    9422 H6         321.9670  -247.9934  -175.7167 H6            1 RES     
    9423 H6         320.6520  -249.9375  -174.7402 H6            1 RES     
    9424 H6         320.5491  -248.4806  -173.6941 H6            1 RES     
    9425 H6         319.1600  -248.9147  -174.7565 H6            1 RES     
    9426 C0         316.1055  -263.3862  -190.5234 C0            1 RES     
    9427 C1         316.0030  -261.8924  -190.1441 C1            1 RES     
    9428 C1         315.4669  -261.1412  -191.1409 C1            1 RES     
    9429 S2         315.4266  -259.5033  -190.7975 S2            1 RES     
    9430 C1         316.1784  -259.7331  -189.2899 C1            1 RES     
    9431 C1         316.4515  -261.0895  -189.0821 C1            1 RES     
    9432 C1         315.1967  -261.9773  -192.2457 C1            1 RES     
    9433 C1         315.6237  -263.2387  -191.9675 C1            1 RES     
    9434 C1         315.5202  -264.0855  -193.0645 C1            1 RES     
    9435 C1         314.9630  -263.4076  -194.1619 C1            1 RES     
    9436 S2         314.6189  -261.7861  -193.7937 S2            1 RES     
    9437 H3         316.9933  -261.4280  -188.2195 H3            1 RES     
    9438 H3         315.8322  -265.1231  -193.0712 H3            1 RES     
    9439 N4         313.3869  -264.5991  -197.3473 N4            1 RES     
    9440 C1         313.5224  -264.1403  -196.0685 C1            1 RES     
    9441 C1         314.7965  -263.9403  -195.5095 C1            1 RES     
    9442 C1         315.9131  -264.2020  -196.3054 C1            1 RES     
    9443 N4         317.1952  -263.9966  -195.9085 N4            1 RES     
    9444 S2         318.0514  -264.4111  -197.2601 S2            1 RES     
    9445 N4         316.8842  -264.8494  -198.3482 N4            1 RES     
    9446 C1         315.7456  -264.6590  -197.6367 C1            1 RES     
    9447 C1         314.4635  -264.8671  -198.1384 C1            1 RES     
    9448 H5         312.6327  -263.9378  -195.4784 H5            1 RES     
    9449 C0         315.1894  -264.4343  -189.7989 C0            1 RES     
    9450 C0         313.6389  -264.6871  -189.9171 C0            1 RES     
    9451 C0         313.3204  -265.7839  -188.8410 C0            1 RES     
    9452 C0         311.8741  -266.2899  -188.7752 C0            1 RES     
    9453 C0         311.6666  -267.3281  -187.6474 C0            1 RES     
    9454 C0         312.4758  -268.6370  -187.7807 C0            1 RES     
    9455 C0         312.2790  -269.3879  -189.1094 C0            1 RES     
    9456 C0         310.8091  -269.7520  -189.3844 C0            1 RES     
    9457 C0         310.6081  -270.4513  -190.7364 C0            1 RES     
    9458 C0         311.2499  -271.8478  -190.7972 C0            1 RES     
    9459 C0         310.9453  -272.5843  -192.1114 C0            1 RES     
    9460 C0         311.5677  -271.9131  -193.3363 C0            1 RES     
    9461 C0         312.6504  -263.4784  -189.8336 C0            1 RES     
    9462 C0         312.5460  -262.6693  -188.5043 C0            1 RES     
    9463 C0         312.9032  -261.2064  -188.7847 C0            1 RES     
    9464 C0         313.1874  -260.2969  -187.5928 C0            1 RES     
    9465 C0         311.9746  -259.7488  -186.8551 C0            1 RES     
    9466 C0         312.4869  -258.8256  -185.7297 C0            1 RES     
    9467 C0         311.3877  -258.0407  -185.0100 C0            1 RES     
    9468 C0         310.7425  -256.9860  -185.9114 C0            1 RES     
    9469 H6         315.3490  -264.3004  -188.7595 H6            1 RES     
    9470 H6         315.6277  -265.4189  -190.0785 H6            1 RES     
    9471 H6         313.4643  -265.1223  -190.9264 H6            1 RES     
    9472 H6         313.5767  -265.3929  -187.8321 H6            1 RES     
    9473 H6         313.9803  -266.6553  -189.0404 H6            1 RES     
    9474 H6         311.5727  -266.7115  -189.7556 H6            1 RES     
    9475 H6         311.2009  -265.4411  -188.5391 H6            1 RES     
    9476 H6         310.5863  -267.5778  -187.6030 H6            1 RES     
    9477 H6         311.9226  -266.8636  -186.6694 H6            1 RES     
    9478 H6         312.1880  -269.3073  -186.9403 H6            1 RES     
    9479 H6         313.5592  -268.4211  -187.6624 H6            1 RES     
    9480 H6         312.6670  -268.7652  -189.9429 H6            1 RES     
    9481 H6         312.8944  -270.3102  -189.0611 H6            1 RES     
    9482 H6         310.2112  -268.8189  -189.4273 H6            1 RES     
    9483 H6         310.4086  -270.3864  -188.5635 H6            1 RES     
    9484 H6         309.5136  -270.5665  -190.8948 H6            1 RES     
    9485 H6         311.0083  -269.7945  -191.5371 H6            1 RES     
    9486 H6         312.3504  -271.7856  -190.6690 H6            1 RES     
    9487 H6         310.8335  -272.4557  -189.9645 H6            1 RES     
    9488 H6         309.8453  -272.6682  -192.2504 H6            1 RES     
    9489 H6         311.3631  -273.6114  -192.0364 H6            1 RES     
    9490 H6         311.1503  -270.8988  -193.4976 H6            1 RES     
    9491 H6         312.6697  -271.8435  -193.2162 H6            1 RES     
    9492 H6         311.3465  -272.5195  -194.2395 H6            1 RES     
    9493 H6         311.6315  -263.8623  -190.0546 H6            1 RES     
    9494 H6         312.8467  -262.8089  -190.6983 H6            1 RES     
    9495 H6         311.5086  -262.7025  -188.1020 H6            1 RES     
    9496 H6         313.2262  -263.0998  -187.7416 H6            1 RES     
    9497 H6         312.2010  -260.7311  -189.5017 H6            1 RES     
    9498 H6         313.8553  -261.2750  -189.2666 H6            1 RES     
    9499 H6         313.8666  -260.8087  -186.9066 H6            1 RES     
    9500 H6         313.7334  -259.4138  -187.9961 H6            1 RES     
    9501 H6         311.3726  -259.1770  -187.5928 H6            1 RES     
    9502 H6         311.3538  -260.5658  -186.4307 H6            1 RES     
    9503 H6         313.0236  -259.4567  -184.9854 H6            1 RES     
    9504 H6         313.2177  -258.0882  -186.1331 H6            1 RES     
    9505 H6         311.8591  -257.5040  -184.1573 H6            1 RES     
    9506 H6         310.6196  -258.7340  -184.6075 H6            1 RES     
    9507 H6         310.2155  -257.4506  -186.7680 H6            1 RES     
    9508 H6         310.0046  -256.4002  -185.3266 H6            1 RES     
    9509 H6         311.5178  -256.2871  -186.2979 H6            1 RES     
    9510 C0         317.6391  -263.7406  -190.3892 C0            1 RES     
    9511 C0         318.2760  -264.7174  -189.3000 C0            1 RES     
    9512 C0         319.7918  -264.3373  -189.1976 C0            1 RES     
    9513 C0         320.6732  -265.3213  -188.4021 C0            1 RES     
    9514 C0         322.1493  -264.8965  -188.3071 C0            1 RES     
    9515 C0         322.8906  -264.7505  -189.6480 C0            1 RES     
    9516 C0         322.8283  -265.9821  -190.5668 C0            1 RES     
    9517 C0         323.3764  -267.2625  -189.9124 C0            1 RES     
    9518 C0         323.3024  -268.4849  -190.8416 C0            1 RES     
    9519 C0         324.2329  -268.3667  -192.0619 C0            1 RES     
    9520 C0         324.2552  -269.6378  -192.9251 C0            1 RES     
    9521 C0         322.9150  -269.9333  -193.5987 C0            1 RES     
    9522 C0         317.6628  -265.0178  -187.8680 C0            1 RES     
    9523 C0         317.6016  -263.9339  -186.7547 C0            1 RES     
    9524 C0         316.1734  -263.4062  -186.5284 C0            1 RES     
    9525 C0         316.0122  -262.2956  -185.5036 C0            1 RES     
    9526 C0         316.1530  -262.6823  -184.0381 C0            1 RES     
    9527 C0         315.7777  -261.4397  -183.2049 C0            1 RES     
    9528 C0         315.7125  -261.6834  -181.6961 C0            1 RES     
    9529 C0         314.5563  -262.6055  -181.3061 C0            1 RES     
    9530 H6         318.2128  -262.7847  -190.3890 H6            1 RES     
    9531 H6         317.9644  -264.1707  -191.3636 H6            1 RES     
    9532 H6         318.2188  -265.7207  -189.7819 H6            1 RES     
    9533 H6         319.8830  -263.3297  -188.7375 H6            1 RES     
    9534 H6         320.1973  -264.2792  -190.2306 H6            1 RES     
    9535 H6         320.5929  -266.3329  -188.8525 H6            1 RES     
    9536 H6         320.3339  -265.3776  -187.3497 H6            1 RES     
    9537 H6         322.6779  -265.6490  -187.6837 H6            1 RES     
    9538 H6         322.2167  -263.9271  -187.7661 H6            1 RES     
    9539 H6         323.9542  -264.5150  -189.4249 H6            1 RES     
    9540 H6         322.4740  -263.8840  -190.2046 H6            1 RES     
    9541 H6         321.7782  -266.1550  -190.8857 H6            1 RES     
    9542 H6         323.4205  -265.7344  -191.4712 H6            1 RES     
    9543 H6         322.7608  -267.5014  -189.0201 H6            1 RES     
    9544 H6         324.4254  -267.1065  -189.5795 H6            1 RES     
    9545 H6         323.6150  -269.3745  -190.2525 H6            1 RES     
    9546 H6         322.2479  -268.6307  -191.1586 H6            1 RES     
    9547 H6         323.9425  -267.5087  -192.7025 H6            1 RES     
    9548 H6         325.2670  -268.1931  -191.6919 H6            1 RES     
    9549 H6         324.5621  -270.5085  -192.3058 H6            1 RES     
    9550 H6         325.0146  -269.4969  -193.7241 H6            1 RES     
    9551 H6         322.1231  -270.1367  -192.8499 H6            1 RES     
    9552 H6         322.6089  -269.0769  -194.2366 H6            1 RES     
    9553 H6         323.0181  -270.8337  -194.2400 H6            1 RES     
    9554 H6         318.2985  -265.8229  -187.4560 H6            1 RES     
    9555 H6         316.7225  -265.5990  -187.9092 H6            1 RES     
    9556 H6         317.8696  -264.4225  -185.7921 H6            1 RES     
    9557 H6         318.3459  -263.1330  -186.9393 H6            1 RES     
    9558 H6         315.4861  -264.2481  -186.2852 H6            1 RES     
    9559 H6         315.8112  -262.9312  -187.4332 H6            1 RES     
    9560 H6         316.6779  -261.4434  -185.7616 H6            1 RES     
    9561 H6         314.9615  -261.9754  -185.5991 H6            1 RES     
    9562 H6         315.4457  -263.5147  -183.8379 H6            1 RES     
    9563 H6         317.1862  -263.0164  -183.8083 H6            1 RES     
    9564 H6         316.5322  -260.6482  -183.4081 H6            1 RES     
    9565 H6         314.7846  -261.0468  -183.5231 H6            1 RES     
    9566 H6         315.5323  -260.6995  -181.2099 H6            1 RES     
    9567 H6         316.6780  -262.0875  -181.3325 H6            1 RES     
    9568 H6         314.6903  -263.6227  -181.7247 H6            1 RES     
    9569 H6         314.5107  -262.6882  -180.2009 H6            1 RES     
    9570 H6         313.5913  -262.1870  -181.6673 H6            1 RES     
    9571 C0         313.8448  -268.1176  -202.4546 C0            1 RES     
    9572 C1         313.9354  -266.9208  -201.4824 C1            1 RES     
    9573 C1         314.0144  -265.7308  -202.1328 C1            1 RES     
    9574 S2         314.2066  -264.4198  -201.1097 S2            1 RES     
    9575 C1         314.2352  -265.4150  -199.7314 C1            1 RES     
    9576 C1         314.0970  -266.7587  -200.0963 C1            1 RES     
    9577 C1         314.0214  -265.9721  -203.5236 C1            1 RES     
    9578 C1         314.0139  -267.3144  -203.7451 C1            1 RES     
    9579 C1         314.1644  -267.6287  -205.0904 C1            1 RES     
    9580 C1         314.2477  -266.4595  -205.8653 C1            1 RES     
    9581 S2         314.1553  -265.0600  -204.9081 S2            1 RES     
    9582 H3         314.1672  -267.5479  -199.3720 H3            1 RES     
    9583 H3         314.2157  -268.6369  -205.4837 H3            1 RES     
    9584 N4         313.8266  -265.8100  -209.5328 N4            1 RES     
    9585 C1         313.5474  -265.9054  -208.1998 C1            1 RES     
    9586 C1         314.5098  -266.3927  -207.2986 C1            1 RES     
    9587 C1         315.7610  -266.7526  -207.8024 C1            1 RES     
    9588 N4         316.7953  -267.1822  -207.0348 N4            1 RES     
    9589 S2         317.9982  -267.3865  -208.1498 S2            1 RES     
    9590 N4         317.2860  -266.9614  -209.5817 N4            1 RES     
    9591 C1         316.0326  -266.6257  -209.1879 C1            1 RES     
    9592 C1         315.0388  -266.1624  -210.0459 C1            1 RES     
    9593 H5         312.5666  -265.6086  -207.8386 H5            1 RES     
    9594 C0         312.5105  -268.9379  -202.5516 C0            1 RES     
    9595 C0         311.1167  -268.5474  -203.1734 C0            1 RES     
    9596 C0         310.1671  -269.7502  -202.8361 C0            1 RES     
    9597 C0         308.7380  -269.6802  -203.3883 C0            1 RES     
    9598 C0         307.8802  -270.8909  -202.9512 C0            1 RES     
    9599 C0         308.3650  -272.2720  -203.4447 C0            1 RES     
    9600 C0         308.5442  -272.3892  -204.9686 C0            1 RES     
    9601 C0         307.2593  -272.0701  -205.7532 C0            1 RES     
    9602 C0         307.4554  -272.1331  -207.2748 C0            1 RES     
    9603 C0         307.7428  -273.5535  -207.7900 C0            1 RES     
    9604 C0         307.8233  -273.6238  -209.3232 C0            1 RES     
    9605 C0         309.0083  -272.8485  -209.9004 C0            1 RES     
    9606 C0         310.4692  -267.1699  -202.8148 C0            1 RES     
    9607 C0         310.0337  -266.8923  -201.3431 C0            1 RES     
    9608 C0         310.7867  -265.6626  -200.8266 C0            1 RES     
    9609 C0         310.7743  -265.3931  -199.3246 C0            1 RES     
    9610 C0         309.5236  -264.7303  -198.7661 C0            1 RES     
    9611 C0         309.7438  -264.5097  -197.2547 C0            1 RES     
    9612 C0         308.6541  -263.6778  -196.5746 C0            1 RES     
    9613 C0         308.6655  -262.2186  -197.0350 C0            1 RES     
    9614 H6         312.2748  -269.2401  -201.5632 H6            1 RES     
    9615 H6         312.7933  -269.8523  -203.1204 H6            1 RES     
    9616 H6         311.2604  -268.5103  -204.2764 H6            1 RES     
    9617 H6         310.0867  -269.8552  -201.7320 H6            1 RES     
    9618 H6         310.6414  -270.6757  -203.2271 H6            1 RES     
    9619 H6         308.7602  -269.5950  -204.4938 H6            1 RES     
    9620 H6         308.2325  -268.7820  -202.9797 H6            1 RES     
    9621 H6         306.8431  -270.7262  -203.3097 H6            1 RES     
    9622 H6         307.8279  -270.9216  -201.8403 H6            1 RES     
    9623 H6         307.6298  -273.0362  -203.1071 H6            1 RES     
    9624 H6         309.3336  -272.5233  -202.9619 H6            1 RES     
    9625 H6         309.3557  -271.7052  -205.2954 H6            1 RES     
    9626 H6         308.8703  -273.4281  -205.1832 H6            1 RES     
    9627 H6         306.9490  -271.0302  -205.5246 H6            1 RES     
    9628 H6         306.4391  -272.7552  -205.4456 H6            1 RES     
    9629 H6         306.5150  -271.7769  -207.7490 H6            1 RES     
    9630 H6         308.2724  -271.4355  -207.5551 H6            1 RES     
    9631 H6         308.6888  -273.9473  -207.3639 H6            1 RES     
    9632 H6         306.9097  -274.2140  -207.4645 H6            1 RES     
    9633 H6         306.8773  -273.2453  -209.7683 H6            1 RES     
    9634 H6         307.9393  -274.6901  -209.6144 H6            1 RES     
    9635 H6         308.9237  -271.7636  -209.6885 H6            1 RES     
    9636 H6         309.9604  -273.2336  -209.4774 H6            1 RES     
    9637 H6         309.0309  -272.9790  -211.0026 H6            1 RES     
    9638 H6         309.5613  -267.0519  -203.4442 H6            1 RES     
    9639 H6         311.1321  -266.3646  -203.1974 H6            1 RES     
    9640 H6         308.9424  -266.6801  -201.2874 H6            1 RES     
    9641 H6         310.2463  -267.7772  -200.7093 H6            1 RES     
    9642 H6         310.5465  -264.7468  -201.4069 H6            1 RES     
    9643 H6         311.8105  -265.9040  -201.0186 H6            1 RES     
    9644 H6         310.9980  -266.3213  -198.7932 H6            1 RES     
    9645 H6         311.6156  -264.6908  -199.1256 H6            1 RES     
    9646 H6         309.4023  -263.7608  -199.2941 H6            1 RES     
    9647 H6         308.6218  -265.3555  -198.9368 H6            1 RES     
    9648 H6         309.7911  -265.5088  -196.7651 H6            1 RES     
    9649 H6         310.7179  -264.0009  -197.0733 H6            1 RES     
    9650 H6         308.8592  -263.6817  -195.4814 H6            1 RES     
    9651 H6         307.6568  -264.1345  -196.7467 H6            1 RES     
    9652 H6         308.4282  -262.1308  -198.1136 H6            1 RES     
    9653 H6         307.9071  -261.6445  -196.4651 H6            1 RES     
    9654 H6         309.6641  -261.7653  -196.8448 H6            1 RES     
    9655 C0         315.0827  -269.0320  -202.0983 C0            1 RES     
    9656 C0         315.0075  -270.4857  -201.4446 C0            1 RES     
    9657 C0         316.4046  -270.7481  -200.7878 C0            1 RES     
    9658 C0         316.6614  -272.1961  -200.3237 C0            1 RES     
    9659 C0         318.0359  -272.4028  -199.6633 C0            1 RES     
    9660 C0         319.2562  -272.0846  -200.5457 C0            1 RES     
    9661 C0         319.2883  -272.8080  -201.9022 C0            1 RES     
    9662 C0         319.2371  -274.3411  -201.7800 C0            1 RES     
    9663 C0         319.2648  -275.0487  -203.1444 C0            1 RES     
    9664 C0         320.6005  -274.8656  -203.8870 C0            1 RES     
    9665 C0         320.6775  -275.6733  -205.1919 C0            1 RES     
    9666 C0         319.6799  -275.2047  -206.2513 C0            1 RES     
    9667 C0         313.8316  -271.0157  -200.5209 C0            1 RES     
    9668 C0         313.5803  -270.4419  -199.0977 C0            1 RES     
    9669 C0         312.3334  -269.5411  -199.0407 C0            1 RES     
    9670 C0         312.0334  -268.8769  -197.7071 C0            1 RES     
    9671 C0         311.4984  -269.7693  -196.5960 C0            1 RES     
    9672 C0         311.1118  -268.8465  -195.4221 C0            1 RES     
    9673 C0         310.4075  -269.5547  -194.2634 C0            1 RES     
    9674 C0         309.0181  -270.0626  -194.6516 C0            1 RES     
    9675 H6         315.8065  -268.4165  -201.5150 H6            1 RES     
    9676 H6         315.6601  -269.1858  -203.0379 H6            1 RES     
    9677 H6         314.9232  -271.1648  -202.3243 H6            1 RES     
    9678 H6         316.5288  -270.0702  -199.9158 H6            1 RES     
    9679 H6         317.1848  -270.4893  -201.5356 H6            1 RES     
    9680 H6         316.5423  -272.8848  -201.1863 H6            1 RES     
    9681 H6         315.9330  -272.4843  -199.5411 H6            1 RES     
    9682 H6         318.0965  -273.4620  -199.3336 H6            1 RES     
    9683 H6         318.0987  -271.7771  -198.7458 H6            1 RES     
    9684 H6         320.1704  -272.3479  -199.9698 H6            1 RES     
    9685 H6         319.2947  -270.9910  -200.7373 H6            1 RES     
    9686 H6         318.4377  -272.4624  -202.5278 H6            1 RES     
    9687 H6         320.2267  -272.4983  -202.4058 H6            1 RES     
    9688 H6         318.2845  -274.6305  -201.2891 H6            1 RES     
    9689 H6         320.0775  -274.7058  -201.1505 H6            1 RES     
    9690 H6         319.1156  -276.1354  -202.9627 H6            1 RES     
    9691 H6         318.4156  -274.6787  -203.7573 H6            1 RES     
    9692 H6         320.7827  -273.7965  -204.1211 H6            1 RES     
    9693 H6         321.4169  -275.2224  -203.2217 H6            1 RES     
    9694 H6         320.5156  -276.7520  -204.9775 H6            1 RES     
    9695 H6         321.7002  -275.5536  -205.6100 H6            1 RES     
    9696 H6         318.6341  -275.3492  -205.9129 H6            1 RES     
    9697 H6         319.8467  -274.1322  -206.4879 H6            1 RES     
    9698 H6         319.8241  -275.7985  -207.1783 H6            1 RES     
    9699 H6         314.0591  -272.0865  -200.3672 H6            1 RES     
    9700 H6         312.8796  -271.1591  -201.0657 H6            1 RES     
    9701 H6         313.3336  -271.2950  -198.4279 H6            1 RES     
    9702 H6         314.4946  -269.9589  -198.6974 H6            1 RES     
    9703 H6         311.4379  -270.1006  -199.3946 H6            1 RES     
    9704 H6         312.4704  -268.6852  -199.6920 H6            1 RES     
    9705 H6         312.9178  -268.2955  -197.3667 H6            1 RES     
    9706 H6         311.2039  -268.1824  -197.9193 H6            1 RES     
    9707 H6         310.6041  -270.2985  -196.9875 H6            1 RES     
    9708 H6         312.2566  -270.5159  -196.2802 H6            1 RES     
    9709 H6         312.0405  -268.3689  -195.0393 H6            1 RES     
    9710 H6         310.4371  -268.0332  -195.7761 H6            1 RES     
    9711 H6         310.2739  -268.8068  -193.4512 H6            1 RES     
    9712 H6         311.0373  -270.3833  -193.8830 H6            1 RES     
    9713 H6         309.0765  -270.8456  -195.4334 H6            1 RES     
    9714 H6         308.5254  -270.4994  -193.7589 H6            1 RES     
    9715 H6         308.3910  -269.2226  -195.0232 H6            1 RES     
    9716 C0         315.4599  -267.2512  -215.3577 C0            1 RES     
    9717 C1         315.4244  -266.5867  -213.9639 C1            1 RES     
    9718 C1         316.0137  -265.3629  -213.9591 C1            1 RES     
    9719 S2         316.0743  -264.6545  -212.4436 S2            1 RES     
    9720 C1         315.3386  -266.0012  -211.7115 C1            1 RES     
    9721 C1         315.0607  -266.9852  -212.6667 C1            1 RES     
    9722 C1         316.5123  -265.0930  -215.2519 C1            1 RES     
    9723 C1         316.2952  -266.1732  -216.0500 C1            1 RES     
    9724 C1         316.8878  -266.0347  -217.2993 C1            1 RES     
    9725 C1         317.5252  -264.7873  -217.4090 C1            1 RES     
    9726 S2         317.3772  -263.8754  -215.9842 S2            1 RES     
    9727 H3         314.6644  -267.9431  -212.3880 H3            1 RES     
    9728 H3         316.8644  -266.7884  -218.0773 H3            1 RES     
    9729 N4         318.7322  -262.8039  -220.3516 N4            1 RES     
    9730 C1         317.9388  -263.2449  -219.3318 C1            1 RES     
    9731 C1         318.3364  -264.3300  -218.5317 C1            1 RES     
    9732 C1         319.5713  -264.9251  -218.7957 C1            1 RES     
    9733 N4         320.0983  -265.9405  -218.0644 N4            1 RES     
    9734 S2         321.5643  -266.1722  -218.7916 S2            1 RES     
    9735 N4         321.5846  -265.0489  -220.0066 N4            1 RES     
    9736 C1         320.3855  -264.4360  -219.8479 C1            1 RES     
    9737 C1         319.9376  -263.3749  -220.6304 C1            1 RES     
    9738 H5         316.9872  -262.7540  -219.1470 H5            1 RES     
    9739 C0         314.1250  -267.4375  -216.1616 C0            1 RES     
    9740 C0         313.2113  -266.3745  -216.8806 C0            1 RES     
    9741 C0         311.9647  -267.1824  -217.3864 C0            1 RES     
    9742 C0         310.9211  -266.4073  -218.2003 C0            1 RES     
    9743 C0         309.7156  -267.2901  -218.6005 C0            1 RES     
    9744 C0         310.0360  -268.4901  -219.5188 C0            1 RES     
    9745 C0         310.7679  -268.1301  -220.8237 C0            1 RES     
    9746 C0         309.9994  -267.1124  -221.6852 C0            1 RES     
    9747 C0         310.7576  -266.7127  -222.9592 C0            1 RES     
    9748 C0         310.9016  -267.8668  -223.9655 C0            1 RES     
    9749 C0         311.5595  -267.4269  -225.2830 C0            1 RES     
    9750 C0         313.0156  -266.9918  -225.1133 C0            1 RES     
    9751 C0         312.7977  -265.0714  -216.1216 C0            1 RES     
    9752 C0         311.8929  -265.1809  -214.8559 C0            1 RES     
    9753 C0         312.6350  -264.5730  -213.6618 C0            1 RES     
    9754 C0         312.0943  -264.8550  -212.2629 C0            1 RES     
    9755 C0         310.9054  -264.0174  -211.8151 C0            1 RES     
    9756 C0         310.5579  -264.4300  -210.3693 C0            1 RES     
    9757 C0         309.5025  -263.5473  -209.6991 C0            1 RES     
    9758 C0         310.0166  -262.1318  -209.4284 C0            1 RES     
    9759 H6         313.4598  -267.9539  -215.5177 H6            1 RES     
    9760 H6         314.3981  -268.1343  -216.9859 H6            1 RES     
    9761 H6         313.7805  -266.0138  -217.7663 H6            1 RES     
    9762 H6         311.4364  -267.6253  -216.5139 H6            1 RES     
    9763 H6         312.3365  -268.0204  -218.0140 H6            1 RES     
    9764 H6         311.3936  -265.9596  -219.0982 H6            1 RES     
    9765 H6         310.5084  -265.5875  -217.5783 H6            1 RES     
    9766 H6         308.9669  -266.6439  -219.1037 H6            1 RES     
    9767 H6         309.2262  -267.6816  -217.6812 H6            1 RES     
    9768 H6         309.0779  -268.9976  -219.7697 H6            1 RES     
    9769 H6         310.6555  -269.2290  -218.9669 H6            1 RES     
    9770 H6         311.7721  -267.7236  -220.5800 H6            1 RES     
    9771 H6         310.9131  -269.0728  -221.3910 H6            1 RES     
    9772 H6         309.8632  -266.1795  -221.1012 H6            1 RES     
    9773 H6         308.9947  -267.5101  -221.9482 H6            1 RES     
    9774 H6         310.1830  -265.8964  -223.4489 H6            1 RES     
    9775 H6         311.7514  -266.3124  -222.6681 H6            1 RES     
    9776 H6         311.4916  -268.7009  -223.5323 H6            1 RES     
    9777 H6         309.8838  -268.2447  -224.2055 H6            1 RES     
    9778 H6         310.9735  -266.5994  -225.7393 H6            1 RES     
    9779 H6         311.5411  -268.2898  -225.9832 H6            1 RES     
    9780 H6         313.0973  -266.0968  -224.4641 H6            1 RES     
    9781 H6         313.6143  -267.8195  -224.6772 H6            1 RES     
    9782 H6         313.4393  -266.7317  -226.1059 H6            1 RES     
    9783 H6         312.2603  -264.4192  -216.8429 H6            1 RES     
    9784 H6         313.7180  -264.4863  -215.9095 H6            1 RES     
    9785 H6         310.9439  -264.6170  -214.9987 H6            1 RES     
    9786 H6         311.6380  -266.2423  -214.6602 H6            1 RES     
    9787 H6         312.8511  -263.4933  -213.8050 H6            1 RES     
    9788 H6         313.5708  -265.0903  -213.6660 H6            1 RES     
    9789 H6         311.8797  -265.9226  -212.1712 H6            1 RES     
    9790 H6         312.9228  -264.6253  -211.5548 H6            1 RES     
    9791 H6         311.2191  -262.9529  -211.8583 H6            1 RES     
    9792 H6         310.0288  -264.1680  -212.4800 H6            1 RES     
    9793 H6         310.1866  -265.4797  -210.3915 H6            1 RES     
    9794 H6         311.4690  -264.4102  -209.7289 H6            1 RES     
    9795 H6         309.2558  -264.0039  -208.7152 H6            1 RES     
    9796 H6         308.5786  -263.5170  -210.3141 H6            1 RES     
    9797 H6         310.2474  -261.5961  -210.3702 H6            1 RES     
    9798 H6         309.2431  -261.5550  -208.8819 H6            1 RES     
    9799 H6         310.9338  -262.1718  -208.7992 H6            1 RES     
    9800 C0         316.2226  -268.6179  -215.1430 C0            1 RES     
    9801 C0         315.5769  -270.0721  -215.2633 C0            1 RES     
    9802 C0         316.5083  -271.0378  -214.4556 C0            1 RES     
    9803 C0         316.2346  -272.5432  -214.6477 C0            1 RES     
    9804 C0         317.1567  -273.4536  -213.8177 C0            1 RES     
    9805 C0         318.6628  -273.3207  -214.1057 C0            1 RES     
    9806 C0         319.0635  -273.4883  -215.5808 C0            1 RES     
    9807 C0         318.6301  -274.8362  -216.1837 C0            1 RES     
    9808 C0         319.0335  -274.9859  -217.6595 C0            1 RES     
    9809 C0         320.5578  -275.0603  -217.8592 C0            1 RES     
    9810 C0         320.9596  -275.3350  -219.3167 C0            1 RES     
    9811 C0         320.5886  -274.1984  -220.2693 C0            1 RES     
    9812 C0         314.0472  -270.4186  -215.0242 C0            1 RES     
    9813 C0         313.3916  -270.3229  -213.6174 C0            1 RES     
    9814 C0         312.4557  -269.1076  -213.4885 C0            1 RES     
    9815 C0         311.8118  -268.8851  -212.1299 C0            1 RES     
    9816 C0         310.7005  -269.8441  -211.7270 C0            1 RES     
    9817 C0         310.0992  -269.3112  -210.4104 C0            1 RES     
    9818 C0         308.8589  -270.0656  -209.9280 C0            1 RES     
    9819 C0         307.6583  -269.8611  -210.8531 C0            1 RES     
    9820 H6         316.7763  -268.5530  -214.1774 H6            1 RES     
    9821 H6         317.0726  -268.6374  -215.8620 H6            1 RES     
    9822 H6         315.6963  -270.3237  -216.3424 H6            1 RES     
    9823 H6         316.4272  -270.7991  -213.3731 H6            1 RES     
    9824 H6         317.5555  -270.8415  -214.7712 H6            1 RES     
    9825 H6         316.3142  -272.7962  -215.7258 H6            1 RES     
    9826 H6         315.2134  -272.7958  -214.3021 H6            1 RES     
    9827 H6         316.8468  -274.5048  -214.0000 H6            1 RES     
    9828 H6         316.9914  -273.2533  -212.7362 H6            1 RES     
    9829 H6         319.1946  -274.0822  -213.4942 H6            1 RES     
    9830 H6         319.0147  -272.3238  -213.7642 H6            1 RES     
    9831 H6         318.6261  -272.6619  -216.1809 H6            1 RES     
    9832 H6         320.1674  -273.3904  -215.6237 H6            1 RES     
    9833 H6         317.5230  -274.9069  -216.1461 H6            1 RES     
    9834 H6         319.0526  -275.6767  -215.5916 H6            1 RES     
    9835 H6         318.5883  -275.9327  -218.0355 H6            1 RES     
    9836 H6         318.5978  -274.1432  -218.2373 H6            1 RES     
    9837 H6         321.0492  -274.1225  -217.5272 H6            1 RES     
    9838 H6         320.9466  -275.8976  -217.2394 H6            1 RES     
    9839 H6         320.4919  -276.2817  -219.6644 H6            1 RES     
    9840 H6         322.0632  -275.4617  -219.3505 H6            1 RES     
    9841 H6         319.4902  -274.0571  -220.3206 H6            1 RES     
    9842 H6         321.0679  -273.2512  -219.9421 H6            1 RES     
    9843 H6         320.9494  -274.4437  -221.2903 H6            1 RES     
    9844 H6         313.9528  -271.4801  -215.3180 H6            1 RES     
    9845 H6         313.3793  -270.0052  -215.8031 H6            1 RES     
    9846 H6         312.7195  -271.2010  -213.4972 H6            1 RES     
    9847 H6         314.1578  -270.3790  -212.8179 H6            1 RES     
    9848 H6         311.6712  -269.1405  -214.2782 H6            1 RES     
    9849 H6         313.0232  -268.1932  -213.6204 H6            1 RES     
    9850 H6         312.5965  -268.8245  -211.3448 H6            1 RES     
    9851 H6         311.3084  -267.9078  -212.2142 H6            1 RES     
    9852 H6         309.9384  -269.8382  -212.5348 H6            1 RES     
    9853 H6         311.0880  -270.8760  -211.5967 H6            1 RES     
    9854 H6         310.8838  -269.3712  -209.6244 H6            1 RES     
    9855 H6         309.8159  -268.2391  -210.5212 H6            1 RES     
    9856 H6         308.5866  -269.6515  -208.9324 H6            1 RES     
    9857 H6         309.0883  -271.1436  -209.8134 H6            1 RES     
    9858 H6         307.8437  -270.2886  -211.8584 H6            1 RES     
    9859 H6         306.7714  -270.3666  -210.4191 H6            1 RES     
    9860 H6         307.4304  -268.7773  -210.9544 H6            1 RES     
    9861 C0         322.1565  -262.6332  -225.5400 C0            1 RES     
    9862 C1         321.7251  -262.5281  -224.0606 C1            1 RES     
    9863 C1         322.5206  -261.6884  -223.3483 C1            1 RES     
    9864 S2         322.1369  -261.6227  -221.7201 S2            1 RES     
    9865 C1         320.8945  -262.7697  -221.8985 C1            1 RES     
    9866 C1         320.8032  -263.1876  -223.2306 C1            1 RES     
    9867 C1         323.5327  -261.1909  -224.1973 C1            1 RES     
    9868 C1         323.4127  -261.7686  -225.4232 C1            1 RES     
    9869 C1         324.4626  -261.4341  -226.2699 C1            1 RES     
    9870 C1         325.3510  -260.5521  -225.6318 C1            1 RES     
    9871 S2         324.8619  -260.2028  -224.0437 S2            1 RES     
    9872 H3         320.1278  -263.9662  -223.5305 H3            1 RES     
    9873 H3         324.5800  -261.8077  -227.2801 H3            1 RES     
    9874 N4         328.0227  -258.2635  -226.9260 N4            1 RES     
    9875 C1         326.8165  -258.7065  -226.4644 C1            1 RES     
    9876 C1         326.6170  -260.0662  -226.1691 C1            1 RES     
    9877 C1         327.6912  -260.9414  -226.3393 C1            1 RES     
    9878 N4         327.6497  -262.2644  -226.0371 N4            1 RES     
    9879 S2         329.1925  -262.7502  -226.3772 S2            1 RES     
    9880 N4         329.9362  -261.3672  -226.8993 N4            1 RES     
    9881 C1         328.9393  -260.4533  -226.8013 C1            1 RES     
    9882 C1         329.0816  -259.1021  -227.1057 C1            1 RES     
    9883 H5         326.0032  -257.9977  -226.3345 H5            1 RES     
    9884 C0         321.2390  -262.0271  -226.6596 C0            1 RES     
    9885 C0         320.9409  -260.5255  -227.0313 C0            1 RES     
    9886 C0         319.8475  -260.5918  -228.1549 C0            1 RES     
    9887 C0         319.4069  -259.2585  -228.7718 C0            1 RES     
    9888 C0         318.2922  -259.4411  -229.8286 C0            1 RES     
    9889 C0         318.6727  -260.2776  -231.0701 C0            1 RES     
    9890 C0         319.9179  -259.7836  -231.8274 C0            1 RES     
    9891 C0         319.7953  -258.3250  -232.3030 C0            1 RES     
    9892 C0         321.0606  -257.8170  -233.0090 C0            1 RES     
    9893 C0         321.3283  -258.5188  -234.3512 C0            1 RES     
    9894 C0         322.5301  -257.9243  -235.1025 C0            1 RES     
    9895 C0         323.8598  -258.1405  -234.3790 C0            1 RES     
    9896 C0         320.5626  -259.5107  -225.9033 C0            1 RES     
    9897 C0         319.2340  -259.7115  -225.1114 C0            1 RES     
    9898 C0         319.5626  -259.8711  -223.6239 C0            1 RES     
    9899 C0         318.4685  -260.4003  -222.7010 C0            1 RES     
    9900 C0         317.4170  -259.3960  -222.2523 C0            1 RES     
    9901 C0         316.4481  -260.1250  -221.2978 C0            1 RES     
    9902 C0         315.4385  -259.2076  -220.6041 C0            1 RES     
    9903 C0         316.1049  -258.2667  -219.5981 C0            1 RES     
    9904 H6         320.2781  -262.4522  -226.5190 H6            1 RES     
    9905 H6         321.6518  -262.4441  -227.6059 H6            1 RES     
    9906 H6         321.8765  -260.1162  -227.4737 H6            1 RES     
    9907 H6         318.9355  -261.0825  -227.7502 H6            1 RES     
    9908 H6         320.2400  -261.2350  -228.9715 H6            1 RES     
    9909 H6         320.2803  -258.7345  -229.2106 H6            1 RES     
    9910 H6         318.9762  -258.6142  -227.9790 H6            1 RES     
    9911 H6         317.9644  -258.4346  -230.1615 H6            1 RES     
    9912 H6         317.4079  -259.9178  -229.3506 H6            1 RES     
    9913 H6         317.8034  -260.2783  -231.7649 H6            1 RES     
    9914 H6         318.8455  -261.3337  -230.7714 H6            1 RES     
    9915 H6         320.8088  -259.8846  -231.1723 H6            1 RES     
    9916 H6         320.0613  -260.4550  -232.6994 H6            1 RES     
    9917 H6         319.6513  -257.6711  -231.4189 H6            1 RES     
    9918 H6         318.9135  -258.2096  -232.9706 H6            1 RES     
    9919 H6         320.9207  -256.7321  -233.2080 H6            1 RES     
    9920 H6         321.9223  -257.9360  -232.3192 H6            1 RES     
    9921 H6         321.5003  -259.6053  -234.2045 H6            1 RES     
    9922 H6         320.4302  -258.3894  -234.9937 H6            1 RES     
    9923 H6         322.3693  -256.8370  -235.2708 H6            1 RES     
    9924 H6         322.5972  -258.4208  -236.0945 H6            1 RES     
    9925 H6         323.8763  -257.6218  -233.3993 H6            1 RES     
    9926 H6         324.0398  -259.2257  -234.2247 H6            1 RES     
    9927 H6         324.6852  -257.7279  -234.9962 H6            1 RES     
    9928 H6         320.5104  -258.5010  -226.3640 H6            1 RES     
    9929 H6         321.4306  -259.4158  -225.2163 H6            1 RES     
    9930 H6         318.5677  -258.8273  -225.2270 H6            1 RES     
    9931 H6         318.6945  -260.6026  -225.4917 H6            1 RES     
    9932 H6         320.0510  -258.9681  -223.2008 H6            1 RES     
    9933 H6         320.2850  -260.6593  -223.6160 H6            1 RES     
    9934 H6         318.0045  -261.2756  -223.1621 H6            1 RES     
    9935 H6         318.9812  -260.7502  -221.7762 H6            1 RES     
    9936 H6         317.9499  -258.5764  -221.7252 H6            1 RES     
    9937 H6         316.8620  -258.9750  -223.1171 H6            1 RES     
    9938 H6         315.8928  -260.8881  -221.8891 H6            1 RES     
    9939 H6         317.0146  -260.6631  -220.5040 H6            1 RES     
    9940 H6         314.7311  -259.8517  -220.0368 H6            1 RES     
    9941 H6         314.8617  -258.6303  -221.3569 H6            1 RES     
    9942 H6         316.7991  -257.5628  -220.0979 H6            1 RES     
    9943 H6         315.3277  -257.6740  -219.0743 H6            1 RES     
    9944 H6         316.6680  -258.8549  -218.8393 H6            1 RES     
    9945 C0         322.4503  -264.1675  -225.7752 C0            1 RES     
    9946 C0         321.5989  -265.1455  -226.7050 C0            1 RES     
    9947 C0         321.8995  -266.6002  -226.2091 C0            1 RES     
    9948 C0         321.3971  -267.7339  -227.1257 C0            1 RES     
    9949 C0         321.6929  -269.1452  -226.5882 C0            1 RES     
    9950 C0         323.1799  -269.4826  -226.3785 C0            1 RES     
    9951 C0         324.0792  -269.2642  -227.6065 C0            1 RES     
    9952 C0         323.6303  -270.0614  -228.8438 C0            1 RES     
    9953 C0         324.5363  -269.8281  -230.0637 C0            1 RES     
    9954 C0         325.9590  -270.3818  -229.8676 C0            1 RES     
    9955 C0         326.8287  -270.2624  -231.1288 C0            1 RES     
    9956 C0         327.1230  -268.8152  -231.5239 C0            1 RES     
    9957 C0         320.0628  -264.9671  -227.0593 C0            1 RES     
    9958 C0         318.9467  -265.1306  -225.9889 C0            1 RES     
    9959 C0         318.3299  -263.7826  -225.5747 C0            1 RES     
    9960 C0         317.2713  -263.8241  -224.4851 C0            1 RES     
    9961 C0         315.9086  -264.3848  -224.8671 C0            1 RES     
    9962 C0         314.9733  -264.1593  -223.6615 C0            1 RES     
    9963 C0         313.5096  -264.5235  -223.9170 C0            1 RES     
    9964 C0         312.8461  -263.5871  -224.9280 C0            1 RES     
    9965 H6         322.5801  -264.6481  -224.7776 H6            1 RES     
    9966 H6         323.4870  -264.2471  -226.1738 H6            1 RES     
    9967 H6         322.0732  -265.0336  -227.7073 H6            1 RES     
    9968 H6         321.4553  -266.7387  -225.1997 H6            1 RES     
    9969 H6         323.0017  -266.7052  -226.1146 H6            1 RES     
    9970 H6         321.8351  -267.6089  -228.1382 H6            1 RES     
    9971 H6         320.2939  -267.6976  -227.2134 H6            1 RES     
    9972 H6         321.2549  -269.8767  -227.3005 H6            1 RES     
    9973 H6         321.1653  -269.2856  -225.6192 H6            1 RES     
    9974 H6         323.2460  -270.5467  -226.0623 H6            1 RES     
    9975 H6         323.5808  -268.8685  -225.5441 H6            1 RES     
    9976 H6         324.1073  -268.1825  -227.8588 H6            1 RES     
    9977 H6         325.1032  -269.5692  -227.3092 H6            1 RES     
    9978 H6         322.6115  -269.7298  -229.1343 H6            1 RES     
    9979 H6         323.5889  -271.1469  -228.6087 H6            1 RES     
    9980 H6         324.0765  -270.3530  -230.9293 H6            1 RES     
    9981 H6         324.5607  -268.7408  -230.2892 H6            1 RES     
    9982 H6         326.4751  -269.8665  -229.0315 H6            1 RES     
    9983 H6         325.8773  -271.4619  -229.6161 H6            1 RES     
    9984 H6         326.3378  -270.7886  -231.9761 H6            1 RES     
    9985 H6         327.7991  -270.7644  -230.9254 H6            1 RES     
    9986 H6         326.1939  -268.2731  -231.7918 H6            1 RES     
    9987 H6         327.6324  -268.2858  -230.6907 H6            1 RES     
    9988 H6         327.7914  -268.8063  -232.4104 H6            1 RES     
    9989 H6         319.8586  -265.7479  -227.8147 H6            1 RES     
    9990 H6         319.8638  -264.0960  -227.7114 H6            1 RES     
    9991 H6         318.1050  -265.6846  -226.4601 H6            1 RES     
    9992 H6         319.3046  -265.7362  -225.1318 H6            1 RES     
    9993 H6         317.9321  -263.2505  -226.4686 H6            1 RES     
    9994 H6         319.0908  -263.1549  -225.1247 H6            1 RES     
    9995 H6         317.6772  -264.3307  -223.5826 H6            1 RES     
    9996 H6         317.0715  -262.7664  -224.2469 H6            1 RES     
    9997 H6         315.5466  -263.8212  -225.7528 H6            1 RES     
    9998 H6         315.9749  -265.4632  -225.1212 H6            1 RES     
    9999 H6         315.3521  -264.7704  -222.8128 H6            1 RES     
   10000 H6         315.0014  -263.0911  -223.3452 H6            1 RES     
   10001 H6         312.9677  -264.4102  -222.9525 H6            1 RES     
   10002 H6         313.4306  -265.5783  -224.2469 H6            1 RES     
   10003 H6         313.3114  -263.6767  -225.9296 H6            1 RES     
   10004 H6         311.7721  -263.8489  -225.0195 H6            1 RES     
   10005 H6         312.9226  -262.5323  -224.5837 H6            1 RES     
   10006 C0         333.1532  -257.5767  -230.3727 C0            1 RES     
   10007 C1         332.2109  -257.8394  -229.1774 C1            1 RES     
   10008 C1         332.8275  -257.6517  -227.9816 C1            1 RES     
   10009 S2         331.8607  -258.0174  -226.6648 S2            1 RES     
   10010 C1         330.5675  -258.4913  -227.6617 C1            1 RES     
   10011 C1         330.9161  -258.3583  -229.0102 C1            1 RES     
   10012 C1         334.1745  -257.2993  -228.2146 C1            1 RES     
   10013 C1         334.4203  -257.3304  -229.5524 C1            1 RES     
   10014 C1         335.7640  -257.1333  -229.8473 C1            1 RES     
   10015 C1         336.5021  -256.9175  -228.6713 C1            1 RES     
   10016 S2         335.5197  -256.9857  -227.2880 S2            1 RES     
   10017 H3         330.2583  -258.6798  -229.7952 H3            1 RES     
   10018 H3         336.1824  -257.1498  -230.8465 H3            1 RES     
   10019 N4         339.9020  -255.4719  -228.0381 N4            1 RES     
   10020 C1         338.5459  -255.5722  -228.1615 C1            1 RES     
   10021 C1         337.9508  -256.7758  -228.5773 C1            1 RES     
   10022 C1         338.7826  -257.8665  -228.8365 C1            1 RES     
   10023 N4         338.3339  -259.0987  -229.1884 N4            1 RES     
   10024 S2         339.7370  -259.9660  -229.2933 S2            1 RES     
   10025 N4         340.9122  -258.8632  -228.9175 N4            1 RES     
   10026 C1         340.1862  -257.7424  -228.6820 C1            1 RES     
   10027 C1         340.7320  -256.5220  -228.2928 C1            1 RES     
   10028 H5         337.9260  -254.7069  -227.9435 H5            1 RES     
   10029 C0         332.9077  -256.3299  -231.2935 C0            1 RES     
   10030 C0         333.1201  -254.7950  -231.0091 C0            1 RES     
   10031 C0         332.5702  -254.0632  -232.2837 C0            1 RES     
   10032 C0         332.7143  -252.5367  -232.3219 C0            1 RES     
   10033 C0         332.0934  -251.9207  -233.5977 C0            1 RES     
   10034 C0         332.7349  -252.3534  -234.9345 C0            1 RES     
   10035 C0         334.2531  -252.1210  -235.0299 C0            1 RES     
   10036 C0         334.6534  -250.6517  -234.8074 C0            1 RES     
   10037 C0         336.1726  -250.4323  -234.8474 C0            1 RES     
   10038 C0         336.7827  -250.6726  -236.2387 C0            1 RES     
   10039 C0         338.2821  -250.3395  -236.2948 C0            1 RES     
   10040 C0         339.1374  -251.2636  -235.4271 C0            1 RES     
   10041 C0         332.5646  -254.1698  -229.6879 C0            1 RES     
   10042 C0         331.0233  -254.1303  -229.4522 C0            1 RES     
   10043 C0         330.6977  -254.9029  -228.1704 C0            1 RES     
   10044 C0         329.2416  -255.2783  -227.9102 C0            1 RES     
   10045 C0         328.3493  -254.1807  -227.3492 C0            1 RES     
   10046 C0         326.9483  -254.7854  -227.1197 C0            1 RES     
   10047 C0         325.9781  -253.8629  -226.3782 C0            1 RES     
   10048 C0         326.3867  -253.6421  -224.9203 C0            1 RES     
   10049 H6         331.9005  -256.3936  -231.6180 H6            1 RES     
   10050 H6         333.5552  -256.5142  -232.1804 H6            1 RES     
   10051 H6         334.2196  -254.6313  -230.9556 H6            1 RES     
   10052 H6         331.4885  -254.2929  -232.4001 H6            1 RES     
   10053 H6         333.0985  -254.4803  -233.1677 H6            1 RES     
   10054 H6         333.7822  -252.2523  -232.2297 H6            1 RES     
   10055 H6         332.1614  -252.0965  -231.4677 H6            1 RES     
   10056 H6         332.1544  -250.8161  -233.5121 H6            1 RES     
   10057 H6         331.0108  -252.1738  -233.6379 H6            1 RES     
   10058 H6         332.2313  -251.7953  -235.7551 H6            1 RES     
   10059 H6         332.5380  -253.4323  -235.1124 H6            1 RES     
   10060 H6         334.7690  -252.7611  -234.2834 H6            1 RES     
   10061 H6         334.5745  -252.4520  -236.0392 H6            1 RES     
   10062 H6         334.3228  -250.3397  -233.7958 H6            1 RES     
   10063 H6         334.1538  -249.9981  -235.5556 H6            1 RES     
   10064 H6         336.3661  -249.3750  -234.5629 H6            1 RES     
   10065 H6         336.6448  -251.0893  -234.0872 H6            1 RES     
   10066 H6         336.6380  -251.7248  -236.5600 H6            1 RES     
   10067 H6         336.2617  -250.0096  -236.9634 H6            1 RES     
   10068 H6         338.4455  -249.2832  -235.9886 H6            1 RES     
   10069 H6         338.6212  -250.4500  -237.3474 H6            1 RES     
   10070 H6         338.8825  -251.1603  -234.3531 H6            1 RES     
   10071 H6         338.9970  -252.3203  -235.7394 H6            1 RES     
   10072 H6         340.2078  -250.9961  -235.5500 H6            1 RES     
   10073 H6         332.9224  -253.1192  -229.6374 H6            1 RES     
   10074 H6         333.0910  -254.6433  -228.8316 H6            1 RES     
   10075 H6         330.6698  -253.0824  -229.3255 H6            1 RES     
   10076 H6         330.4935  -254.5710  -230.3211 H6            1 RES     
   10077 H6         331.1677  -254.4480  -227.2731 H6            1 RES     
   10078 H6         331.1649  -255.8512  -228.3308 H6            1 RES     
   10079 H6         328.8143  -255.7050  -228.8210 H6            1 RES     
   10080 H6         329.2589  -256.0882  -227.1458 H6            1 RES     
   10081 H6         328.7998  -253.8501  -226.3894 H6            1 RES     
   10082 H6         328.2865  -253.3147  -228.0415 H6            1 RES     
   10083 H6         326.5155  -255.0368  -228.1146 H6            1 RES     
   10084 H6         327.0234  -255.7322  -226.5379 H6            1 RES     
   10085 H6         324.9813  -254.3563  -226.3717 H6            1 RES     
   10086 H6         325.8865  -252.8926  -226.9101 H6            1 RES     
   10087 H6         327.3586  -253.1156  -224.8457 H6            1 RES     
   10088 H6         325.6187  -253.0265  -224.4096 H6            1 RES     
   10089 H6         326.4614  -254.6188  -224.3919 H6            1 RES     
   10090 C0         333.1678  -258.9284  -231.1902 C0            1 RES     
   10091 C0         332.5559  -259.1399  -232.6486 C0            1 RES     
   10092 C0         332.3074  -260.6781  -232.8051 C0            1 RES     
   10093 C0         331.9673  -261.1564  -234.2312 C0            1 RES     
   10094 C0         331.7079  -262.6698  -234.3339 C0            1 RES     
   10095 C0         332.8783  -263.5786  -233.9176 C0            1 RES     
   10096 C0         334.2114  -263.2947  -234.6296 C0            1 RES     
   10097 C0         334.1195  -263.3911  -236.1627 C0            1 RES     
   10098 C0         335.4586  -263.0998  -236.8592 C0            1 RES     
   10099 C0         336.5290  -264.1671  -236.5693 C0            1 RES     
   10100 C0         337.8267  -263.9465  -237.3621 C0            1 RES     
   10101 C0         338.5652  -262.6676  -236.9669 C0            1 RES     
   10102 C0         331.3631  -258.3005  -233.2728 C0            1 RES     
   10103 C0         329.9106  -258.4029  -232.7273 C0            1 RES     
   10104 C0         329.4960  -257.1556  -231.9262 C0            1 RES     
   10105 C0         328.1142  -257.1805  -231.2939 C0            1 RES     
   10106 C0         326.9234  -257.0335  -232.2307 C0            1 RES     
   10107 C0         325.6654  -256.9129  -231.3465 C0            1 RES     
   10108 C0         324.3783  -256.6029  -232.1130 C0            1 RES     
   10109 C0         324.3901  -255.2014  -232.7251 C0            1 RES     
   10110 H6         332.7858  -259.7361  -230.5233 H6            1 RES     
   10111 H6         334.2321  -259.2392  -231.2940 H6            1 RES     
   10112 H6         333.3974  -258.8704  -233.3278 H6            1 RES     
   10113 H6         331.4841  -260.9839  -232.1240 H6            1 RES     
   10114 H6         333.2310  -261.2053  -232.4829 H6            1 RES     
   10115 H6         332.7833  -260.8589  -234.9226 H6            1 RES     
   10116 H6         331.0250  -260.6906  -234.5788 H6            1 RES     
   10117 H6         331.4342  -262.8949  -235.3869 H6            1 RES     
   10118 H6         330.8256  -262.9328  -233.7099 H6            1 RES     
   10119 H6         332.5775  -264.6313  -234.1122 H6            1 RES     
   10120 H6         333.0449  -263.4834  -232.8234 H6            1 RES     
   10121 H6         334.5751  -262.2834  -234.3479 H6            1 RES     
   10122 H6         334.9413  -264.0362  -234.2455 H6            1 RES     
   10123 H6         333.3974  -262.6311  -236.5275 H6            1 RES     
   10124 H6         333.7497  -264.3950  -236.4642 H6            1 RES     
   10125 H6         335.2715  -263.0855  -237.9550 H6            1 RES     
   10126 H6         335.8098  -262.0915  -236.5531 H6            1 RES     
   10127 H6         336.7759  -264.2002  -235.4881 H6            1 RES     
   10128 H6         336.1182  -265.1571  -236.8650 H6            1 RES     
   10129 H6         337.6045  -263.9283  -238.4511 H6            1 RES     
   10130 H6         338.5020  -264.8060  -237.1613 H6            1 RES     
   10131 H6         337.9610  -261.7662  -237.1937 H6            1 RES     
   10132 H6         338.8103  -262.6849  -235.8835 H6            1 RES     
   10133 H6         339.5117  -262.5983  -237.5432 H6            1 RES     
   10134 H6         331.3043  -258.6390  -234.3235 H6            1 RES     
   10135 H6         331.6343  -257.2496  -233.4868 H6            1 RES     
   10136 H6         329.2213  -258.4102  -233.6003 H6            1 RES     
   10137 H6         329.7595  -259.3535  -232.1768 H6            1 RES     
   10138 H6         329.6095  -256.2412  -232.5517 H6            1 RES     
   10139 H6         330.1378  -257.0478  -231.0590 H6            1 RES     
   10140 H6         328.0103  -258.0789  -230.6474 H6            1 RES     
   10141 H6         328.0768  -256.2759  -230.6648 H6            1 RES     
   10142 H6         327.0727  -256.1078  -232.8256 H6            1 RES     
   10143 H6         326.8434  -257.9015  -232.9178 H6            1 RES     
   10144 H6         325.5351  -257.8730  -230.8002 H6            1 RES     
   10145 H6         325.8030  -256.1098  -230.5862 H6            1 RES     
   10146 H6         323.5411  -256.6400  -231.3818 H6            1 RES     
   10147 H6         324.2035  -257.3711  -232.8922 H6            1 RES     
   10148 H6         325.1787  -255.1030  -233.4974 H6            1 RES     
   10149 H6         323.4092  -255.0024  -233.2034 H6            1 RES     
   10150 H6         324.5570  -254.4372  -231.9345 H6            1 RES     
   10151 C0         345.9867  -255.5665  -229.3192 C0            1 RES     
   10152 C1         344.6183  -255.8614  -228.6664 C1            1 RES     
   10153 C1         344.7412  -256.3387  -227.4006 C1            1 RES     
   10154 S2         343.2804  -256.7557  -226.6972 S2            1 RES     
   10155 C1         342.4120  -256.3466  -228.1006 C1            1 RES     
   10156 C1         343.2818  -255.8932  -229.0983 C1            1 RES     
   10157 C1         346.1131  -256.4471  -227.0863 C1            1 RES     
   10158 C1         346.8506  -256.1016  -228.1761 C1            1 RES     
   10159 C1         348.2095  -256.3216  -227.9858 C1            1 RES     
   10160 C1         348.4548  -256.8122  -226.6922 C1            1 RES     
   10161 S2         347.0199  -256.9895  -225.8017 S2            1 RES     
   10162 H3         342.9314  -255.6585  -230.0854 H3            1 RES     
   10163 H3         348.9715  -256.1436  -228.7352 H3            1 RES     
   10164 N4         351.5618  -257.0279  -224.6065 N4            1 RES     
   10165 C1         350.3774  -256.5751  -225.1128 C1            1 RES     
   10166 C1         349.7426  -257.2530  -226.1679 C1            1 RES     
   10167 C1         350.3453  -258.4103  -226.6641 C1            1 RES     
   10168 N4         349.8097  -259.1887  -227.6392 N4            1 RES     
   10169 S2         350.9113  -260.4157  -227.7528 S2            1 RES     
   10170 N4         352.0573  -260.0235  -226.6253 N4            1 RES     
   10171 C1         351.5651  -258.8708  -226.1080 C1            1 RES     
   10172 C1         352.1701  -258.1511  -225.0810 C1            1 RES     
   10173 H5         349.9301  -255.6758  -224.6981 H5            1 RES     
   10174 C0         346.4051  -254.0811  -229.6044 C0            1 RES     
   10175 C0         346.8232  -252.9313  -228.6118 C0            1 RES     
   10176 C0         346.9945  -251.6570  -229.5114 C0            1 RES     
   10177 C0         347.4764  -250.3780  -228.8155 C0            1 RES     
   10178 C0         347.5591  -249.1772  -229.7872 C0            1 RES     
   10179 C0         348.5605  -249.3238  -230.9541 C0            1 RES     
   10180 C0         350.0047  -249.6463  -230.5319 C0            1 RES     
   10181 C0         350.6004  -248.6006  -229.5725 C0            1 RES     
   10182 C0         352.0208  -248.9537  -229.1088 C0            1 RES     
   10183 C0         353.0582  -248.9038  -230.2433 C0            1 RES     
   10184 C0         354.4926  -249.1460  -229.7471 C0            1 RES     
   10185 C0         354.7108  -250.5576  -229.2012 C0            1 RES     
   10186 C0         345.9474  -252.6445  -227.3486 C0            1 RES     
   10187 C0         344.4877  -252.1272  -227.5342 C0            1 RES     
   10188 C0         343.5229  -253.1185  -226.8766 C0            1 RES     
   10189 C0         342.0377  -252.9993  -227.2066 C0            1 RES     
   10190 C0         341.2643  -251.9182  -226.4660 C0            1 RES     
   10191 C0         339.7895  -252.0067  -226.9116 C0            1 RES     
   10192 C0         338.8368  -251.1107  -226.1167 C0            1 RES     
   10193 C0         338.6784  -251.5738  -224.6670 C0            1 RES     
   10194 H6         345.6192  -253.6550  -230.1740 H6            1 RES     
   10195 H6         347.2903  -254.1708  -230.2738 H6            1 RES     
   10196 H6         347.8200  -253.2112  -228.2036 H6            1 RES     
   10197 H6         346.0236  -251.4189  -229.9983 H6            1 RES     
   10198 H6         347.7206  -251.9052  -230.3149 H6            1 RES     
   10199 H6         348.4566  -250.5553  -228.3281 H6            1 RES     
   10200 H6         346.7451  -250.0904  -228.0333 H6            1 RES     
   10201 H6         347.8248  -248.2749  -229.1984 H6            1 RES     
   10202 H6         346.5523  -248.9853  -230.2200 H6            1 RES     
   10203 H6         348.5566  -248.3734  -231.5331 H6            1 RES     
   10204 H6         348.2155  -250.1222  -231.6454 H6            1 RES     
   10205 H6         350.0306  -250.6464  -230.0499 H6            1 RES     
   10206 H6         350.6144  -249.7010  -231.4576 H6            1 RES     
   10207 H6         349.9774  -248.5597  -228.6559 H6            1 RES     
   10208 H6         350.5927  -247.5942  -230.0456 H6            1 RES     
   10209 H6         352.3162  -248.2097  -228.3372 H6            1 RES     
   10210 H6         351.9985  -249.9572  -228.6342 H6            1 RES     
   10211 H6         352.8219  -249.6487  -231.0312 H6            1 RES     
   10212 H6         353.0243  -247.8896  -230.6977 H6            1 RES     
   10213 H6         354.7523  -248.3992  -228.9653 H6            1 RES     
   10214 H6         355.1838  -249.0018  -230.6053 H6            1 RES     
   10215 H6         354.0848  -250.7464  -228.3059 H6            1 RES     
   10216 H6         354.4740  -251.3111  -229.9822 H6            1 RES     
   10217 H6         355.7739  -250.6762  -228.9041 H6            1 RES     
   10218 H6         346.4798  -251.8855  -226.7363 H6            1 RES     
   10219 H6         345.9764  -253.5425  -226.6949 H6            1 RES     
   10220 H6         344.3546  -251.1363  -227.0449 H6            1 RES     
   10221 H6         344.2580  -252.0134  -228.6131 H6            1 RES     
   10222 H6         343.6912  -253.2080  -225.7827 H6            1 RES     
   10223 H6         343.7928  -254.0534  -227.3197 H6            1 RES     
   10224 H6         341.9191  -252.8965  -228.2881 H6            1 RES     
   10225 H6         341.5738  -253.9696  -226.9170 H6            1 RES     
   10226 H6         341.3630  -252.1296  -225.3802 H6            1 RES     
   10227 H6         341.6717  -250.9077  -226.6808 H6            1 RES     
   10228 H6         339.7378  -251.7213  -227.9868 H6            1 RES     
   10229 H6         339.4184  -253.0533  -226.8243 H6            1 RES     
   10230 H6         337.8350  -251.1741  -226.5959 H6            1 RES     
   10231 H6         339.1787  -250.0551  -226.1551 H6            1 RES     
   10232 H6         339.6334  -251.5008  -224.1102 H6            1 RES     
   10233 H6         337.9288  -250.9373  -224.1546 H6            1 RES     
   10234 H6         338.3214  -252.6276  -224.6389 H6            1 RES     
   10235 C0         346.0210  -256.4568  -230.6236 C0            1 RES     
   10236 C0         346.0002  -255.9111  -232.1229 C0            1 RES     
   10237 C0         345.4989  -257.0947  -233.0175 C0            1 RES     
   10238 C0         345.6489  -256.8902  -234.5386 C0            1 RES     
   10239 C0         345.1223  -258.0670  -235.3789 C0            1 RES     
   10240 C0         345.8025  -259.4247  -235.1282 C0            1 RES     
   10241 C0         347.3348  -259.4218  -235.2568 C0            1 RES     
   10242 C0         347.8330  -258.9413  -236.6313 C0            1 RES     
   10243 C0         349.3663  -258.9394  -236.7418 C0            1 RES     
   10244 C0         349.9717  -260.3538  -236.6968 C0            1 RES     
   10245 C0         351.4901  -260.3645  -236.9322 C0            1 RES     
   10246 C0         352.2776  -259.6670  -235.8231 C0            1 RES     
   10247 C0         345.3662  -254.5332  -232.5881 C0            1 RES     
   10248 C0         343.8328  -254.2781  -232.5506 C0            1 RES     
   10249 C0         343.4247  -253.3257  -231.4123 C0            1 RES     
   10250 C0         341.9376  -253.0596  -231.2471 C0            1 RES     
   10251 C0         341.2746  -252.1725  -232.2914 C0            1 RES     
   10252 C0         339.8313  -251.9131  -231.8133 C0            1 RES     
   10253 C0         339.0518  -250.9087  -232.6641 C0            1 RES     
   10254 C0         339.6130  -249.4907  -232.5486 C0            1 RES     
   10255 H6         345.2394  -257.2452  -230.5208 H6            1 RES     
   10256 H6         346.9430  -257.0793  -230.5735 H6            1 RES     
   10257 H6         347.0776  -255.7517  -232.3591 H6            1 RES     
   10258 H6         344.4289  -257.2928  -232.7913 H6            1 RES     
   10259 H6         346.0802  -257.9999  -232.7390 H6            1 RES     
   10260 H6         346.7146  -256.6930  -234.7792 H6            1 RES     
   10261 H6         345.0473  -256.0224  -234.8714 H6            1 RES     
   10262 H6         345.2413  -257.7971  -236.4500 H6            1 RES     
   10263 H6         344.0315  -258.1867  -235.1974 H6            1 RES     
   10264 H6         345.3770  -260.1567  -235.8492 H6            1 RES     
   10265 H6         345.5430  -259.7819  -234.1088 H6            1 RES     
   10266 H6         347.7730  -258.7788  -234.4638 H6            1 RES     
   10267 H6         347.6714  -260.4625  -235.0734 H6            1 RES     
   10268 H6         347.4999  -257.8940  -236.7878 H6            1 RES     
   10269 H6         347.3988  -259.5688  -237.4394 H6            1 RES     
   10270 H6         349.6324  -258.4796  -237.7184 H6            1 RES     
   10271 H6         349.7831  -258.3029  -235.9326 H6            1 RES     
   10272 H6         349.7605  -260.8466  -235.7254 H6            1 RES     
   10273 H6         349.5016  -260.9563  -237.5045 H6            1 RES     
   10274 H6         351.7230  -259.8908  -237.9106 H6            1 RES     
   10275 H6         351.8237  -261.4239  -236.9728 H6            1 RES     
   10276 H6         352.0269  -258.5885  -235.7671 H6            1 RES     
   10277 H6         352.0675  -260.1463  -234.8432 H6            1 RES     
   10278 H6         353.3641  -259.7546  -236.0346 H6            1 RES     
   10279 H6         345.6510  -254.4407  -233.6523 H6            1 RES     
   10280 H6         345.9252  -253.6507  -232.2239 H6            1 RES     
   10281 H6         343.5584  -253.7300  -233.4788 H6            1 RES     
   10282 H6         343.2714  -255.2343  -232.5511 H6            1 RES     
   10283 H6         343.9741  -252.3611  -231.5019 H6            1 RES     
   10284 H6         343.6813  -253.7676  -230.4559 H6            1 RES     
   10285 H6         341.3920  -254.0211  -231.1297 H6            1 RES     
   10286 H6         341.8577  -252.4820  -230.3114 H6            1 RES     
   10287 H6         341.8464  -251.2217  -232.3406 H6            1 RES     
   10288 H6         341.2805  -252.6554  -233.2908 H6            1 RES     
   10289 H6         339.2880  -252.8836  -231.8162 H6            1 RES     
   10290 H6         339.8338  -251.5326  -230.7659 H6            1 RES     
   10291 H6         338.0093  -250.8869  -232.2773 H6            1 RES     
   10292 H6         339.0312  -251.2389  -233.7216 H6            1 RES     
   10293 H6         340.6418  -249.4276  -232.9555 H6            1 RES     
   10294 H6         338.9690  -248.7941  -233.1236 H6            1 RES     
   10295 H6         339.6210  -249.1651  -231.4852 H6            1 RES     
   10296 C0         357.4755  -258.8958  -224.1449 C0            1 RES     
   10297 C1         355.9324  -258.8750  -224.0810 C1            1 RES     
   10298 C1         355.4396  -259.7700  -223.1857 C1            1 RES     
   10299 S2         353.7672  -259.8382  -223.1581 S2            1 RES     
   10300 C1         353.6333  -258.6815  -224.3970 C1            1 RES     
   10301 C1         354.9017  -258.2635  -224.8141 C1            1 RES     
   10302 C1         356.5171  -260.4749  -222.6070 C1            1 RES     
   10303 C1         357.6796  -260.0698  -223.1860 C1            1 RES     
   10304 C1         358.7693  -260.8235  -222.7669 C1            1 RES     
   10305 C1         358.3720  -261.7844  -221.8219 C1            1 RES     
   10306 S2         356.7024  -261.7198  -221.5195 S2            1 RES     
   10307 H3         355.0282  -257.5910  -225.6412 H3            1 RES     
   10308 H3         359.7830  -260.6898  -223.1252 H3            1 RES     
   10309 N4         360.2795  -263.8302  -219.3266 N4            1 RES     
   10310 C1         359.5212  -262.8300  -219.8640 C1            1 RES     
   10311 C1         359.2182  -262.8183  -221.2365 C1            1 RES     
   10312 C1         359.6946  -263.8673  -222.0250 C1            1 RES     
   10313 N4         359.4267  -264.0064  -223.3487 N4            1 RES     
   10314 S2         360.1828  -265.4305  -223.7117 S2            1 RES     
   10315 N4         360.8503  -265.9015  -222.2726 N4            1 RES     
   10316 C1         360.4634  -264.9042  -221.4393 C1            1 RES     
   10317 C1         360.7599  -264.8593  -220.0796 C1            1 RES     
   10318 H5         359.1584  -262.0328  -219.2211 H5            1 RES     
   10319 C0         358.2899  -257.6673  -223.6062 C0            1 RES     
   10320 C0         358.5285  -257.1705  -222.1303 C0            1 RES     
   10321 C0         359.3168  -255.8214  -222.2756 C0            1 RES     
   10322 C0         359.7572  -255.1337  -220.9774 C0            1 RES     
   10323 C0         360.4784  -253.7907  -221.2406 C0            1 RES     
   10324 C0         361.7977  -253.8808  -222.0389 C0            1 RES     
   10325 C0         362.8499  -254.8344  -221.4460 C0            1 RES     
   10326 C0         363.2369  -254.4810  -219.9990 C0            1 RES     
   10327 C0         364.2448  -255.4668  -219.3908 C0            1 RES     
   10328 C0         365.6271  -255.4115  -220.0630 C0            1 RES     
   10329 C0         366.6592  -256.3178  -219.3734 C0            1 RES     
   10330 C0         366.3271  -257.8059  -219.4894 C0            1 RES     
   10331 C0         357.3145  -257.0387  -221.1536 C0            1 RES     
   10332 C0         356.1989  -255.9929  -221.4607 C0            1 RES     
   10333 C0         354.8599  -256.7231  -221.6018 C0            1 RES     
   10334 C0         353.6900  -255.9619  -222.2189 C0            1 RES     
   10335 C0         352.9484  -255.0007  -221.3014 C0            1 RES     
   10336 C0         351.7871  -254.3828  -222.1081 C0            1 RES     
   10337 C0         350.8232  -253.5346  -221.2752 C0            1 RES     
   10338 C0         350.0104  -254.3779  -220.2906 C0            1 RES     
   10339 H6         357.9063  -256.8144  -224.1051 H6            1 RES     
   10340 H6         359.3230  -257.8377  -223.9851 H6            1 RES     
   10341 H6         359.1962  -257.9186  -221.6476 H6            1 RES     
   10342 H6         358.6938  -255.0917  -222.8376 H6            1 RES     
   10343 H6         360.2252  -256.0240  -222.8823 H6            1 RES     
   10344 H6         360.4017  -255.8145  -220.3850 H6            1 RES     
   10345 H6         358.8612  -254.8878  -220.3725 H6            1 RES     
   10346 H6         360.6845  -253.3121  -220.2609 H6            1 RES     
   10347 H6         359.7920  -253.1065  -221.7869 H6            1 RES     
   10348 H6         362.2320  -252.8582  -222.1034 H6            1 RES     
   10349 H6         361.5841  -254.2050  -223.0798 H6            1 RES     
   10350 H6         362.4623  -255.8745  -221.4809 H6            1 RES     
   10351 H6         363.7453  -254.7849  -222.0999 H6            1 RES     
   10352 H6         362.3302  -254.5344  -219.3626 H6            1 RES     
   10353 H6         363.6386  -253.4453  -219.9489 H6            1 RES     
   10354 H6         364.3705  -255.1991  -218.3190 H6            1 RES     
   10355 H6         363.8164  -256.4896  -219.4461 H6            1 RES     
   10356 H6         365.5603  -255.6960  -221.1336 H6            1 RES     
   10357 H6         365.9999  -254.3659  -220.0004 H6            1 RES     
   10358 H6         366.7497  -256.0381  -218.3010 H6            1 RES     
   10359 H6         367.6450  -256.1497  -219.8582 H6            1 RES     
   10360 H6         365.3752  -258.0492  -218.9760 H6            1 RES     
   10361 H6         366.2552  -258.1000  -220.5582 H6            1 RES     
   10362 H6         367.1333  -258.4006  -219.0110 H6            1 RES     
   10363 H6         357.7177  -256.7897  -220.1487 H6            1 RES     
   10364 H6         356.8850  -258.0510  -220.9951 H6            1 RES     
   10365 H6         356.1076  -255.2573  -220.6303 H6            1 RES     
   10366 H6         356.4424  -255.4373  -222.3891 H6            1 RES     
   10367 H6         354.5611  -257.2403  -220.6658 H6            1 RES     
   10368 H6         355.0676  -257.4763  -222.3317 H6            1 RES     
   10369 H6         354.0312  -255.4557  -223.1252 H6            1 RES     
   10370 H6         352.9472  -256.7302  -222.5326 H6            1 RES     
   10371 H6         352.5637  -255.5949  -220.4456 H6            1 RES     
   10372 H6         353.6203  -254.2028  -220.9204 H6            1 RES     
   10373 H6         352.2261  -253.7456  -222.9090 H6            1 RES     
   10374 H6         351.1897  -255.1811  -222.6046 H6            1 RES     
   10375 H6         350.1029  -253.0566  -221.9751 H6            1 RES     
   10376 H6         351.3773  -252.7347  -220.7406 H6            1 RES     
   10377 H6         350.6607  -254.8572  -219.5325 H6            1 RES     
   10378 H6         349.2812  -253.7305  -219.7626 H6            1 RES     
   10379 H6         349.4471  -255.1671  -220.8371 H6            1 RES     
   10380 C0         357.8207  -259.2265  -225.6505 C0            1 RES     
   10381 C0         358.5113  -258.2290  -226.6870 C0            1 RES     
   10382 C0         358.1526  -258.7586  -228.1165 C0            1 RES     
   10383 C0         358.9286  -258.1110  -229.2811 C0            1 RES     
   10384 C0         358.5275  -258.6440  -230.6679 C0            1 RES     
   10385 C0         358.7355  -260.1528  -230.8900 C0            1 RES     
   10386 C0         360.1546  -260.6671  -230.5963 C0            1 RES     
   10387 C0         361.2451  -259.9593  -231.4198 C0            1 RES     
   10388 C0         362.6577  -260.4812  -231.1108 C0            1 RES     
   10389 C0         362.8671  -261.9404  -231.5536 C0            1 RES     
   10390 C0         364.3126  -262.4246  -231.3607 C0            1 RES     
   10391 C0         364.7350  -262.4940  -229.8931 C0            1 RES     
   10392 C0         358.4332  -256.6456  -226.6264 C0            1 RES     
   10393 C0         357.1060  -255.8765  -226.8814 C0            1 RES     
   10394 C0         356.5061  -255.2979  -225.5873 C0            1 RES     
   10395 C0         355.1726  -254.5802  -225.7163 C0            1 RES     
   10396 C0         355.1871  -253.2099  -226.3790 C0            1 RES     
   10397 C0         353.7685  -252.6224  -226.2328 C0            1 RES     
   10398 C0         353.6289  -251.1751  -226.7080 C0            1 RES     
   10399 C0         354.3988  -250.1957  -225.8209 C0            1 RES     
   10400 H6         356.9079  -259.6567  -226.1246 H6            1 RES     
   10401 H6         358.4862  -260.1193  -225.6476 H6            1 RES     
   10402 H6         359.6011  -258.4044  -226.5336 H6            1 RES     
   10403 H6         357.0647  -258.6159  -228.2940 H6            1 RES     
   10404 H6         358.3617  -259.8498  -228.1361 H6            1 RES     
   10405 H6         360.0181  -258.2478  -229.1174 H6            1 RES     
   10406 H6         358.7144  -257.0258  -229.3300 H6            1 RES     
   10407 H6         359.1138  -258.0842  -231.4275 H6            1 RES     
   10408 H6         357.4560  -258.4106  -230.8536 H6            1 RES     
   10409 H6         358.4765  -260.3799  -231.9473 H6            1 RES     
   10410 H6         358.0247  -260.7187  -230.2508 H6            1 RES     
   10411 H6         360.3771  -260.5464  -229.5146 H6            1 RES     
   10412 H6         360.1526  -261.7529  -230.8225 H6            1 RES     
   10413 H6         361.2412  -258.8785  -231.1668 H6            1 RES     
   10414 H6         361.0355  -260.0629  -232.5064 H6            1 RES     
   10415 H6         363.3804  -259.8439  -231.6654 H6            1 RES     
   10416 H6         362.8533  -260.3639  -230.0238 H6            1 RES     
   10417 H6         362.1883  -262.6246  -231.0040 H6            1 RES     
   10418 H6         362.6309  -262.0094  -232.6379 H6            1 RES     
   10419 H6         365.0094  -261.7624  -231.9192 H6            1 RES     
   10420 H6         364.3917  -263.4479  -231.7870 H6            1 RES     
   10421 H6         364.7282  -261.4898  -229.4233 H6            1 RES     
   10422 H6         364.0568  -263.1699  -229.3300 H6            1 RES     
   10423 H6         365.7685  -262.8946  -229.8280 H6            1 RES     
   10424 H6         359.1254  -256.3021  -227.4169 H6            1 RES     
   10425 H6         358.9847  -256.2140  -225.7702 H6            1 RES     
   10426 H6         357.3467  -254.9816  -227.4966 H6            1 RES     
   10427 H6         356.3932  -256.4966  -227.4617 H6            1 RES     
   10428 H6         357.2454  -254.6349  -225.0832 H6            1 RES     
   10429 H6         356.2620  -256.1042  -224.9048 H6            1 RES     
   10430 H6         354.4265  -255.2515  -226.1944 H6            1 RES     
   10431 H6         354.8621  -254.3755  -224.6784 H6            1 RES     
   10432 H6         355.9275  -252.5811  -225.8407 H6            1 RES     
   10433 H6         355.4774  -253.2837  -227.4477 H6            1 RES     
   10434 H6         353.0696  -253.2608  -226.8169 H6            1 RES     
   10435 H6         353.4440  -252.6568  -225.1672 H6            1 RES     
   10436 H6         352.5513  -250.9080  -226.6420 H6            1 RES     
   10437 H6         353.9523  -251.0871  -227.7642 H6            1 RES     
   10438 H6         355.4908  -250.3773  -225.8692 H6            1 RES     
   10439 H6         354.2038  -249.1592  -226.1647 H6            1 RES     
   10440 H6         354.0609  -250.2850  -224.7651 H6            1 RES     
   10441 C0         364.9638  -267.7700  -218.2268 C0            1 RES     
   10442 C1         363.5658  -267.2087  -218.5677 C1            1 RES     
   10443 C1         362.5764  -268.1109  -218.3388 C1            1 RES     
   10444 S2         361.0574  -267.5666  -218.7849 S2            1 RES     
   10445 C1         361.6802  -266.0900  -219.3527 C1            1 RES     
   10446 C1         363.0689  -266.0494  -219.1863 C1            1 RES     
   10447 C1         363.1550  -269.3147  -217.8818 C1            1 RES     
   10448 C1         364.5098  -269.1904  -217.8871 C1            1 RES     
   10449 C1         365.1511  -270.3856  -217.5849 C1            1 RES     
   10450 C1         364.2128  -271.3969  -217.3184 C1            1 RES     
   10451 S2         362.6179  -270.8339  -217.4695 S2            1 RES     
   10452 H3         363.6553  -265.2288  -219.5539 H3            1 RES     
   10453 H3         366.2263  -270.5176  -217.5639 H3            1 RES     
   10454 N4         364.4833  -274.7257  -215.6167 N4            1 RES     
   10455 C1         364.2388  -273.3981  -215.8212 C1            1 RES     
   10456 C1         364.5095  -272.8024  -217.0653 C1            1 RES     
   10457 C1         365.0116  -273.6105  -218.0869 C1            1 RES     
   10458 N4         365.2611  -273.1748  -219.3484 N4            1 RES     
   10459 S2         365.7630  -274.5566  -220.1037 S2            1 RES     
   10460 N4         365.6899  -275.7055  -218.9150 N4            1 RES     
   10461 C1         365.2384  -274.9904  -217.8551 C1            1 RES     
   10462 C1         364.9796  -275.5304  -216.5980 C1            1 RES     
   10463 H5         363.8393  -272.7988  -215.0077 H5            1 RES     
   10464 C0         365.7517  -267.1934  -216.9981 C0            1 RES     
   10465 C0         365.4957  -267.3618  -215.4528 C0            1 RES     
   10466 C0         366.5553  -266.4350  -214.7595 C0            1 RES     
   10467 C0         366.5915  -266.4511  -213.2263 C0            1 RES     
   10468 C0         367.6361  -265.4642  -212.6539 C0            1 RES     
   10469 C0         369.1072  -265.7493  -213.0289 C0            1 RES     
   10470 C0         369.6026  -267.1636  -212.6790 C0            1 RES     
   10471 C0         369.4586  -267.5005  -211.1842 C0            1 RES     
   10472 C0         369.9013  -268.9316  -210.8474 C0            1 RES     
   10473 C0         371.4113  -269.1577  -211.0327 C0            1 RES     
   10474 C0         371.8613  -270.5572  -210.5841 C0            1 RES     
   10475 C0         371.2807  -271.6810  -211.4434 C0            1 RES     
   10476 C0         364.0579  -267.1409  -214.8792 C0            1 RES     
   10477 C0         363.4142  -265.7226  -214.9605 C0            1 RES     
   10478 C0         362.1124  -265.8140  -215.7624 C0            1 RES     
   10479 C0         361.4788  -264.5145  -216.2509 C0            1 RES     
   10480 C0         360.6697  -263.7298  -215.2286 C0            1 RES     
   10481 C0         360.0864  -262.4916  -215.9413 C0            1 RES     
   10482 C0         359.0870  -261.6937  -215.1006 C0            1 RES     
   10483 C0         357.7882  -262.4649  -214.8561 C0            1 RES     
   10484 H6         365.7940  -266.1435  -217.1382 H6            1 RES     
   10485 H6         366.7849  -267.5880  -217.1272 H6            1 RES     
   10486 H6         365.7366  -268.4196  -215.2046 H6            1 RES     
   10487 H6         366.3813  -265.3821  -215.0718 H6            1 RES     
   10488 H6         367.5595  -266.7331  -215.1299 H6            1 RES     
   10489 H6         366.7836  -267.4802  -212.8603 H6            1 RES     
   10490 H6         365.6087  -266.1197  -212.8345 H6            1 RES     
   10491 H6         367.5417  -265.4650  -211.5483 H6            1 RES     
   10492 H6         367.3893  -264.4328  -212.9900 H6            1 RES     
   10493 H6         369.7467  -265.0027  -212.5074 H6            1 RES     
   10494 H6         369.2531  -265.5913  -214.1189 H6            1 RES     
   10495 H6         369.0398  -267.9080  -213.2809 H6            1 RES     
   10496 H6         370.6694  -267.2228  -212.9790 H6            1 RES     
   10497 H6         368.3876  -267.4344  -210.9038 H6            1 RES     
   10498 H6         370.0270  -266.7702  -210.5675 H6            1 RES     
   10499 H6         369.6523  -269.1170  -209.7797 H6            1 RES     
   10500 H6         369.3139  -269.6390  -211.4696 H6            1 RES     
   10501 H6         371.7088  -269.0089  -212.0914 H6            1 RES     
   10502 H6         371.9512  -268.4127  -210.4085 H6            1 RES     
   10503 H6         371.5833  -270.7196  -209.5198 H6            1 RES     
   10504 H6         372.9689  -270.6056  -210.6627 H6            1 RES     
   10505 H6         370.1755  -271.7199  -211.3655 H6            1 RES     
   10506 H6         371.5707  -271.5391  -212.5062 H6            1 RES     
   10507 H6         371.6809  -272.6554  -211.0931 H6            1 RES     
   10508 H6         364.0787  -267.4211  -213.8043 H6            1 RES     
   10509 H6         363.3880  -267.9129  -215.3148 H6            1 RES     
   10510 H6         363.1698  -265.3408  -213.9439 H6            1 RES     
   10511 H6         364.1189  -265.0109  -215.4366 H6            1 RES     
   10512 H6         361.3638  -266.4750  -215.2770 H6            1 RES     
   10513 H6         362.4173  -266.2885  -216.6708 H6            1 RES     
   10514 H6         362.2511  -263.8889  -216.7049 H6            1 RES     
   10515 H6         360.7685  -264.7977  -217.0608 H6            1 RES     
   10516 H6         359.8588  -264.3980  -214.8689 H6            1 RES     
   10517 H6         361.2968  -263.4184  -214.3666 H6            1 RES     
   10518 H6         360.9337  -261.8251  -216.2205 H6            1 RES     
   10519 H6         359.5710  -262.7907  -216.8824 H6            1 RES     
   10520 H6         358.8245  -260.7750  -215.6698 H6            1 RES     
   10521 H6         359.5492  -261.3906  -214.1376 H6            1 RES     
   10522 H6         357.9651  -263.3793  -214.2561 H6            1 RES     
   10523 H6         357.0735  -261.8211  -214.3044 H6            1 RES     
   10524 H6         357.3250  -262.7513  -215.8267 H6            1 RES     
   10525 C0         365.7896  -267.6615  -219.5692 C0            1 RES     
   10526 C0         367.0337  -266.6945  -219.8201 C0            1 RES     
   10527 C0         367.1571  -266.5262  -221.3722 C0            1 RES     
   10528 C0         368.4503  -265.8484  -221.8683 C0            1 RES     
   10529 C0         368.5183  -265.6825  -223.3967 C0            1 RES     
   10530 C0         368.4569  -266.9852  -224.2141 C0            1 RES     
   10531 C0         369.4945  -268.0510  -223.8241 C0            1 RES     
   10532 C0         370.9479  -267.5543  -223.9197 C0            1 RES     
   10533 C0         371.9721  -268.6295  -223.5219 C0            1 RES     
   10534 C0         372.0095  -269.8137  -224.5045 C0            1 RES     
   10535 C0         373.1171  -270.8282  -224.1799 C0            1 RES     
   10536 C0         372.9029  -271.5503  -222.8496 C0            1 RES     
   10537 C0         367.2910  -265.3190  -219.0726 C0            1 RES     
   10538 C0         366.3767  -264.0802  -219.2901 C0            1 RES     
   10539 C0         365.4615  -263.8080  -218.0828 C0            1 RES     
   10540 C0         364.4807  -262.6549  -218.2178 C0            1 RES     
   10541 C0         365.0573  -261.2474  -218.1590 C0            1 RES     
   10542 C0         363.8637  -260.2707  -218.1407 C0            1 RES     
   10543 C0         364.2462  -258.8049  -217.9276 C0            1 RES     
   10544 C0         364.8024  -258.5477  -216.5263 C0            1 RES     
   10545 H6         365.0654  -267.5348  -220.4073 H6            1 RES     
   10546 H6         366.1847  -268.6776  -219.7960 H6            1 RES     
   10547 H6         367.9076  -267.2983  -219.4828 H6            1 RES     
   10548 H6         366.2872  -265.9431  -221.7443 H6            1 RES     
   10549 H6         367.1097  -267.5387  -221.8278 H6            1 RES     
   10550 H6         369.3284  -266.4224  -221.5049 H6            1 RES     
   10551 H6         368.5187  -264.8156  -221.4752 H6            1 RES     
   10552 H6         369.4638  -265.1510  -223.6371 H6            1 RES     
   10553 H6         367.6863  -265.0241  -223.7305 H6            1 RES     
   10554 H6         368.5902  -266.7209  -225.2859 H6            1 RES     
   10555 H6         367.4461  -267.4347  -224.1118 H6            1 RES     
   10556 H6         369.2954  -268.4023  -222.7891 H6            1 RES     
   10557 H6         369.3409  -268.9100  -224.5087 H6            1 RES     
   10558 H6         371.0846  -266.7067  -223.2161 H6            1 RES     
   10559 H6         371.1643  -267.1913  -224.9477 H6            1 RES     
   10560 H6         372.9761  -268.1519  -223.5166 H6            1 RES     
   10561 H6         371.7462  -268.9757  -222.4909 H6            1 RES     
   10562 H6         371.0363  -270.3460  -224.5237 H6            1 RES     
   10563 H6         372.2088  -269.4118  -225.5218 H6            1 RES     
   10564 H6         374.1049  -270.3184  -224.1735 H6            1 RES     
   10565 H6         373.1282  -271.5937  -224.9855 H6            1 RES     
   10566 H6         372.9350  -270.8428  -221.9966 H6            1 RES     
   10567 H6         371.9267  -272.0804  -222.8533 H6            1 RES     
   10568 H6         373.7112  -272.2975  -222.7042 H6            1 RES     
   10569 H6         368.2953  -265.0025  -219.4094 H6            1 RES     
   10570 H6         367.5431  -265.4443  -218.0028 H6            1 RES     
   10571 H6         367.0312  -263.1826  -219.3465 H6            1 RES     
   10572 H6         365.8307  -264.1541  -220.2524 H6            1 RES     
   10573 H6         366.0706  -263.6804  -217.1592 H6            1 RES     
   10574 H6         364.7972  -264.6511  -217.9299 H6            1 RES     
   10575 H6         363.8536  -262.7962  -219.1248 H6            1 RES     
   10576 H6         363.8417  -262.7232  -217.3221 H6            1 RES     
   10577 H6         365.6464  -261.1615  -217.2215 H6            1 RES     
   10578 H6         365.7195  -261.0479  -219.0271 H6            1 RES     
   10579 H6         363.3275  -260.3641  -219.1107 H6            1 RES     
   10580 H6         363.1483  -260.5500  -217.3332 H6            1 RES     
   10581 H6         363.3175  -258.2023  -218.0332 H6            1 RES     
   10582 H6         364.9688  -258.4823  -218.7032 H6            1 RES     
   10583 H6         365.7560  -259.0880  -216.3632 H6            1 RES     
   10584 H6         364.9929  -257.4620  -216.4016 H6            1 RES     
   10585 H6         364.0667  -258.8661  -215.7555 H6            1 RES     
   10586 C0         367.3606  -280.2255  -215.2327 C0            1 RES     
   10587 C1         366.3707  -279.1106  -215.6362 C1            1 RES     
   10588 C1         365.1977  -279.6066  -216.1088 C1            1 RES     
   10589 S2         364.1373  -278.4258  -216.6413 S2            1 RES     
   10590 C1         365.2433  -277.1820  -216.2938 C1            1 RES     
   10591 C1         366.4267  -277.7132  -215.7693 C1            1 RES     
   10592 C1         365.2682  -281.0165  -216.1121 C1            1 RES     
   10593 C1         366.5073  -281.4036  -215.7049 C1            1 RES     
   10594 C1         366.6965  -282.7756  -215.8198 C1            1 RES     
   10595 C1         365.5302  -283.3976  -216.2964 C1            1 RES     
   10596 S2         364.2904  -282.2747  -216.5889 S2            1 RES     
   10597 H3         367.2762  -277.0921  -215.5575 H3            1 RES     
   10598 H3         367.6188  -283.2908  -215.5796 H3            1 RES     
   10599 N4         364.3664  -286.9607  -216.2810 N4            1 RES     
   10600 C1         364.5225  -285.6535  -215.9188 C1            1 RES     
   10601 C1         365.3843  -284.8079  -216.6387 C1            1 RES     
   10602 C1         366.0544  -285.3368  -217.7433 C1            1 RES     
   10603 N4         366.8686  -284.6156  -218.5560 N4            1 RES     
   10604 S2         367.3069  -285.7319  -219.6932 S2            1 RES     
   10605 N4         366.5207  -287.1087  -219.2190 N4            1 RES     
   10606 C1         365.8602  -286.6920  -218.1105 C1            1 RES     
   10607 C1         365.0162  -287.4982  -217.3513 C1            1 RES     
   10608 H5         363.9795  -285.2707  -215.0591 H5            1 RES     
   10609 C0         367.7097  -280.4409  -213.7180 C0            1 RES     
   10610 C0         366.8375  -281.0269  -212.5442 C0            1 RES     
   10611 C0         367.7167  -280.8542  -211.2560 C0            1 RES     
   10612 C0         367.1438  -281.4115  -209.9469 C0            1 RES     
   10613 C0         368.0704  -281.1396  -208.7385 C0            1 RES     
   10614 C0         369.4677  -281.7952  -208.8012 C0            1 RES     
   10615 C0         369.4593  -283.3194  -209.0128 C0            1 RES     
   10616 C0         368.6696  -284.0744  -207.9289 C0            1 RES     
   10617 C0         368.6156  -285.5893  -208.1731 C0            1 RES     
   10618 C0         369.9862  -286.2738  -208.0372 C0            1 RES     
   10619 C0         369.9018  -287.8028  -208.1700 C0            1 RES     
   10620 C0         369.4717  -288.2637  -209.5631 C0            1 RES     
   10621 C0         365.3778  -280.5077  -212.3325 C0            1 RES     
   10622 C0         365.1492  -279.0185  -211.9291 C0            1 RES     
   10623 C0         364.2815  -278.3433  -212.9954 C0            1 RES     
   10624 C0         364.1954  -276.8197  -212.9901 C0            1 RES     
   10625 C0         363.2459  -276.1988  -211.9760 C0            1 RES     
   10626 C0         363.2791  -274.6691  -212.1763 C0            1 RES     
   10627 C0         362.2338  -273.9045  -211.3609 C0            1 RES     
   10628 C0         360.8076  -274.1793  -211.8421 C0            1 RES     
   10629 H6         368.0350  -279.5010  -213.3512 H6            1 RES     
   10630 H6         368.5952  -281.1156  -213.7354 H6            1 RES     
   10631 H6         366.7207  -282.1148  -212.7480 H6            1 RES     
   10632 H6         367.9172  -279.7729  -211.0914 H6            1 RES     
   10633 H6         368.6925  -281.3515  -211.4431 H6            1 RES     
   10634 H6         366.9437  -282.4974  -210.0502 H6            1 RES     
   10635 H6         366.1862  -280.9006  -209.7209 H6            1 RES     
   10636 H6         367.5521  -281.4880  -207.8213 H6            1 RES     
   10637 H6         368.2105  -280.0419  -208.6231 H6            1 RES     
   10638 H6         369.9994  -281.5648  -207.8511 H6            1 RES     
   10639 H6         370.0606  -281.3352  -209.6204 H6            1 RES     
   10640 H6         369.0281  -283.5481  -210.0103 H6            1 RES     
   10641 H6         370.5163  -283.6576  -209.0154 H6            1 RES     
   10642 H6         367.6181  -283.7219  -207.9410 H6            1 RES     
   10643 H6         369.0969  -283.8651  -206.9238 H6            1 RES     
   10644 H6         367.9333  -286.0274  -207.4123 H6            1 RES     
   10645 H6         368.1786  -285.7701  -209.1776 H6            1 RES     
   10646 H6         370.7001  -285.8882  -208.7942 H6            1 RES     
   10647 H6         370.3883  -286.0439  -207.0265 H6            1 RES     
   10648 H6         369.2001  -288.2092  -207.4092 H6            1 RES     
   10649 H6         370.9107  -288.2231  -207.9683 H6            1 RES     
   10650 H6         368.4459  -287.9193  -209.8043 H6            1 RES     
   10651 H6         370.1791  -287.8799  -210.3287 H6            1 RES     
   10652 H6         369.4756  -289.3732  -209.6004 H6            1 RES     
   10653 H6         364.9125  -281.1290  -211.5376 H6            1 RES     
   10654 H6         364.7795  -280.7785  -213.2288 H6            1 RES     
   10655 H6         364.6167  -278.9507  -210.9539 H6            1 RES     
   10656 H6         366.1228  -278.4973  -211.8280 H6            1 RES     
   10657 H6         363.2763  -278.8079  -213.0771 H6            1 RES     
   10658 H6         364.8050  -278.5508  -213.9044 H6            1 RES     
   10659 H6         365.2017  -276.4053  -212.8914 H6            1 RES     
   10660 H6         363.8164  -276.5240  -213.9949 H6            1 RES     
   10661 H6         362.2328  -276.6034  -212.1845 H6            1 RES     
   10662 H6         363.5365  -276.4576  -210.9359 H6            1 RES     
   10663 H6         364.2928  -274.3072  -211.8904 H6            1 RES     
   10664 H6         363.1220  -274.4134  -213.2490 H6            1 RES     
   10665 H6         362.4264  -272.8178  -211.4993 H6            1 RES     
   10666 H6         362.3357  -274.1449  -210.2818 H6            1 RES     
   10667 H6         360.5275  -275.2414  -211.6981 H6            1 RES     
   10668 H6         360.0957  -273.5520  -211.2682 H6            1 RES     
   10669 H6         360.7114  -273.9215  -212.9206 H6            1 RES     
   10670 C0         368.6485  -279.9702  -216.1112 C0            1 RES     
   10671 C0         370.0720  -279.5038  -215.5612 C0            1 RES     
   10672 C0         370.8284  -278.8671  -216.7756 C0            1 RES     
   10673 C0         372.3277  -278.5838  -216.5526 C0            1 RES     
   10674 C0         373.0248  -277.9369  -217.7624 C0            1 RES     
   10675 C0         373.0021  -278.7572  -219.0645 C0            1 RES     
   10676 C0         373.5393  -280.1928  -218.9421 C0            1 RES     
   10677 C0         374.9843  -280.2632  -218.4176 C0            1 RES     
   10678 C0         375.5044  -281.7047  -218.2962 C0            1 RES     
   10679 C0         375.6609  -282.4016  -219.6596 C0            1 RES     
   10680 C0         376.2975  -283.7960  -219.5514 C0            1 RES     
   10681 C0         375.4244  -284.8013  -218.8004 C0            1 RES     
   10682 C0         370.3131  -278.6683  -214.2343 C0            1 RES     
   10683 C0         369.8567  -277.1880  -214.0991 C0            1 RES     
   10684 C0         368.6262  -277.0351  -213.1870 C0            1 RES     
   10685 C0         368.0591  -275.6330  -213.0377 C0            1 RES     
   10686 C0         368.8626  -274.6487  -212.1995 C0            1 RES     
   10687 C0         368.0062  -273.3740  -212.0552 C0            1 RES     
   10688 C0         368.5889  -272.3216  -211.1101 C0            1 RES     
   10689 C0         368.5926  -272.7877  -209.6534 C0            1 RES     
   10690 H6         368.3590  -279.3056  -216.9583 H6            1 RES     
   10691 H6         368.8651  -280.9143  -216.6605 H6            1 RES     
   10692 H6         370.5859  -280.4623  -215.3176 H6            1 RES     
   10693 H6         370.3270  -277.9159  -217.0572 H6            1 RES     
   10694 H6         370.7405  -279.5668  -217.6344 H6            1 RES     
   10695 H6         372.8418  -279.5270  -216.2721 H6            1 RES     
   10696 H6         372.4633  -277.8526  -215.7323 H6            1 RES     
   10697 H6         374.0810  -277.7411  -217.4788 H6            1 RES     
   10698 H6         372.5589  -276.9479  -217.9672 H6            1 RES     
   10699 H6         373.6002  -278.2071  -219.8236 H6            1 RES     
   10700 H6         371.9600  -278.8105  -219.4459 H6            1 RES     
   10701 H6         372.8776  -280.7812  -218.2711 H6            1 RES     
   10702 H6         373.4805  -280.6419  -219.9545 H6            1 RES     
   10703 H6         375.0181  -279.8243  -217.3985 H6            1 RES     
   10704 H6         375.6613  -279.6735  -219.0728 H6            1 RES     
   10705 H6         376.5044  -281.6618  -217.8123 H6            1 RES     
   10706 H6         374.8215  -282.2775  -217.6334 H6            1 RES     
   10707 H6         374.6817  -282.4983  -220.1722 H6            1 RES     
   10708 H6         376.3271  -281.7757  -220.2927 H6            1 RES     
   10709 H6         377.2899  -283.7197  -219.0562 H6            1 RES     
   10710 H6         376.4539  -284.1829  -220.5815 H6            1 RES     
   10711 H6         375.2750  -284.4968  -217.7449 H6            1 RES     
   10712 H6         374.4369  -284.9003  -219.2995 H6            1 RES     
   10713 H6         375.9234  -285.7932  -218.8025 H6            1 RES     
   10714 H6         371.4119  -278.6465  -214.1147 H6            1 RES     
   10715 H6         370.0906  -279.2388  -213.3130 H6            1 RES     
   10716 H6         370.6620  -276.6330  -213.5693 H6            1 RES     
   10717 H6         369.7304  -276.7191  -215.0959 H6            1 RES     
   10718 H6         368.8359  -277.4674  -212.1822 H6            1 RES     
   10719 H6         367.7863  -277.5729  -213.6124 H6            1 RES     
   10720 H6         367.8238  -275.2117  -214.0392 H6            1 RES     
   10721 H6         367.1220  -275.7676  -212.4728 H6            1 RES     
   10722 H6         369.0396  -275.1145  -211.2070 H6            1 RES     
   10723 H6         369.8386  -274.4188  -212.6755 H6            1 RES     
   10724 H6         367.8875  -272.9228  -213.0649 H6            1 RES     
   10725 H6         366.9888  -273.6324  -211.6809 H6            1 RES     
   10726 H6         367.9347  -271.4243  -211.1711 H6            1 RES     
   10727 H6         369.6098  -272.0395  -211.4356 H6            1 RES     
   10728 H6         369.2601  -273.6602  -209.5087 H6            1 RES     
   10729 H6         368.9542  -271.9627  -209.0060 H6            1 RES     
   10730 H6         367.5627  -273.0597  -209.3335 H6            1 RES     
   10731 C0         365.5659  -292.8985  -217.6871 C0            1 RES     
   10732 C1         365.0875  -291.4333  -217.7863 C1            1 RES     
   10733 C1         364.1159  -291.2686  -218.7212 C1            1 RES     
   10734 S2         363.6399  -289.6759  -218.9190 S2            1 RES     
   10735 C1         364.7664  -289.1268  -217.7700 C1            1 RES     
   10736 C1         365.4993  -290.2006  -217.2528 C1            1 RES     
   10737 C1         363.8678  -292.5112  -219.3433 C1            1 RES     
   10738 C1         364.7284  -293.4403  -218.8464 C1            1 RES     
   10739 C1         364.6384  -294.6551  -219.5154 C1            1 RES     
   10740 C1         363.6464  -294.6003  -220.5090 C1            1 RES     
   10741 S2         362.9032  -293.0750  -220.5755 S2            1 RES     
   10742 H3         366.3122  -290.0485  -216.5684 H3            1 RES     
   10743 H3         365.2534  -295.5211  -219.3017 H3            1 RES     
   10744 N4         361.8120  -297.2573  -222.4132 N4            1 RES     
   10745 C1         362.0989  -296.3105  -221.4722 C1            1 RES     
   10746 C1         363.3380  -295.6469  -221.4771 C1            1 RES     
   10747 C1         364.2525  -295.9673  -222.4820 C1            1 RES     
   10748 N4         365.4580  -295.3616  -222.6348 N4            1 RES     
   10749 S2         366.0482  -296.0933  -223.9942 S2            1 RES     
   10750 N4         364.8553  -297.1585  -224.4192 N4            1 RES     
   10751 C1         363.9230  -296.9399  -223.4591 C1            1 RES     
   10752 C1         362.6930  -297.5896  -223.3981 C1            1 RES     
   10753 H5         361.3616  -296.0781  -220.7086 H5            1 RES     
   10754 C0         365.2355  -293.7362  -216.4018 C0            1 RES     
   10755 C0         363.8664  -294.3287  -215.8953 C0            1 RES     
   10756 C0         364.1841  -294.9470  -214.4885 C0            1 RES     
   10757 C0         363.0356  -295.6712  -213.7752 C0            1 RES     
   10758 C0         363.4489  -296.1936  -212.3791 C0            1 RES     
   10759 C0         364.5756  -297.2501  -212.3625 C0            1 RES     
   10760 C0         364.3134  -298.4906  -213.2347 C0            1 RES     
   10761 C0         363.0159  -299.2283  -212.8596 C0            1 RES     
   10762 C0         362.7279  -300.4327  -213.7673 C0            1 RES     
   10763 C0         363.7465  -301.5731  -213.6016 C0            1 RES     
   10764 C0         363.3845  -302.8171  -214.4285 C0            1 RES     
   10765 C0         363.4451  -302.5760  -215.9373 C0            1 RES     
   10766 C0         362.5953  -293.4186  -215.8630 C0            1 RES     
   10767 C0         362.5629  -292.1879  -214.9053 C0            1 RES     
   10768 C0         362.3563  -290.9181  -215.7364 C0            1 RES     
   10769 C0         362.6149  -289.5722  -215.0651 C0            1 RES     
   10770 C0         361.5069  -289.0387  -214.1690 C0            1 RES     
   10771 C0         361.9541  -287.6601  -213.6390 C0            1 RES     
   10772 C0         360.8704  -286.8986  -212.8722 C0            1 RES     
   10773 C0         359.7251  -286.4471  -213.7809 C0            1 RES     
   10774 H6         365.5902  -293.1702  -215.5787 H6            1 RES     
   10775 H6         365.8834  -294.6374  -216.4897 H6            1 RES     
   10776 H6         363.6012  -295.1552  -216.5918 H6            1 RES     
   10777 H6         364.5381  -294.1433  -213.8065 H6            1 RES     
   10778 H6         365.0185  -295.6694  -214.6170 H6            1 RES     
   10779 H6         362.6569  -296.5002  -214.4070 H6            1 RES     
   10780 H6         362.2052  -294.9572  -213.6026 H6            1 RES     
   10781 H6         362.5491  -296.6218  -211.8908 H6            1 RES     
   10782 H6         363.7718  -295.3366  -211.7474 H6            1 RES     
   10783 H6         364.7285  -297.5745  -211.3090 H6            1 RES     
   10784 H6         365.5283  -296.7868  -212.6971 H6            1 RES     
   10785 H6         364.2692  -298.1853  -214.3014 H6            1 RES     
   10786 H6         365.1831  -299.1691  -213.1126 H6            1 RES     
   10787 H6         362.1600  -298.5344  -212.9863 H6            1 RES     
   10788 H6         363.0493  -299.5515  -211.7961 H6            1 RES     
   10789 H6         361.7232  -300.8242  -213.4960 H6            1 RES     
   10790 H6         362.6919  -300.0815  -214.8199 H6            1 RES     
   10791 H6         364.7663  -301.2398  -213.8850 H6            1 RES     
   10792 H6         363.7598  -301.8713  -212.5305 H6            1 RES     
   10793 H6         362.3695  -303.1741  -214.1481 H6            1 RES     
   10794 H6         364.1129  -303.6195  -214.1821 H6            1 RES     
   10795 H6         362.7002  -301.8193  -216.2563 H6            1 RES     
   10796 H6         364.4619  -302.2389  -216.2307 H6            1 RES     
   10797 H6         363.2174  -303.5230  -216.4701 H6            1 RES     
   10798 H6         361.7304  -294.0597  -215.5885 H6            1 RES     
   10799 H6         362.3529  -293.1235  -216.9064 H6            1 RES     
   10800 H6         361.7199  -292.2715  -214.1831 H6            1 RES     
   10801 H6         363.5079  -292.1294  -214.3279 H6            1 RES     
   10802 H6         361.3880  -290.9229  -216.2799 H6            1 RES     
   10803 H6         363.1343  -290.9748  -216.4676 H6            1 RES     
   10804 H6         363.5663  -289.6170  -214.5295 H6            1 RES     
   10805 H6         362.7363  -288.8306  -215.8872 H6            1 RES     
   10806 H6         360.5946  -288.9449  -214.7955 H6            1 RES     
   10807 H6         361.3008  -289.7282  -213.3233 H6            1 RES     
   10808 H6         362.8270  -287.8177  -212.9656 H6            1 RES     
   10809 H6         362.2914  -287.0107  -214.4787 H6            1 RES     
   10810 H6         361.3374  -285.9825  -212.4480 H6            1 RES     
   10811 H6         360.4847  -287.5167  -212.0344 H6            1 RES     
   10812 H6         359.1832  -287.3118  -214.2121 H6            1 RES     
   10813 H6         359.0033  -285.8428  -213.1947 H6            1 RES     
   10814 H6         360.1195  -285.8162  -214.6086 H6            1 RES     
   10815 C0         367.1170  -292.8461  -217.9824 C0            1 RES     
   10816 C0         368.2752  -293.1548  -216.9292 C0            1 RES     
   10817 C0         369.5680  -292.4620  -217.4778 C0            1 RES     
   10818 C0         370.8818  -292.8437  -216.7662 C0            1 RES     
   10819 C0         372.1221  -292.1220  -217.3218 C0            1 RES     
   10820 C0         372.4310  -292.3720  -218.8088 C0            1 RES     
   10821 C0         372.5445  -293.8513  -219.2130 C0            1 RES     
   10822 C0         373.6131  -294.6229  -218.4186 C0            1 RES     
   10823 C0         373.7104  -296.1006  -218.8309 C0            1 RES     
   10824 C0         374.2307  -296.2886  -220.2673 C0            1 RES     
   10825 C0         374.4476  -297.7638  -220.6389 C0            1 RES     
   10826 C0         373.1507  -298.5720  -220.6826 C0            1 RES     
   10827 C0         368.1549  -292.9802  -215.3570 C0            1 RES     
   10828 C0         368.0224  -291.5810  -214.6918 C0            1 RES     
   10829 C0         366.5999  -291.3135  -214.1679 C0            1 RES     
   10830 C0         366.3457  -289.9461  -213.5552 C0            1 RES     
   10831 C0         366.9522  -289.6800  -212.1846 C0            1 RES     
   10832 C0         366.4135  -288.3150  -211.7096 C0            1 RES     
   10833 C0         366.7959  -287.9462  -210.2751 C0            1 RES     
   10834 C0         366.1244  -288.8538  -209.2434 C0            1 RES     
   10835 H6         367.3381  -291.8730  -218.4797 H6            1 RES     
   10836 H6         367.3167  -293.5510  -218.8210 H6            1 RES     
   10837 H6         368.4261  -294.2553  -217.0204 H6            1 RES     
   10838 H6         369.4417  -291.3593  -217.4190 H6            1 RES     
   10839 H6         369.6716  -292.7373  -218.5494 H6            1 RES     
   10840 H6         371.0217  -293.9438  -216.8190 H6            1 RES     
   10841 H6         370.8429  -292.5453  -215.7006 H6            1 RES     
   10842 H6         372.9971  -292.4378  -216.7144 H6            1 RES     
   10843 H6         372.0057  -291.0262  -217.1712 H6            1 RES     
   10844 H6         373.3847  -291.8535  -219.0500 H6            1 RES     
   10845 H6         371.6386  -291.9045  -219.4313 H6            1 RES     
   10846 H6         371.5602  -294.3492  -219.0808 H6            1 RES     
   10847 H6         372.7898  -293.8676  -220.2945 H6            1 RES     
   10848 H6         373.3406  -294.6085  -217.3426 H6            1 RES     
   10849 H6         374.6052  -294.1349  -218.5327 H6            1 RES     
   10850 H6         374.4227  -296.5973  -218.1367 H6            1 RES     
   10851 H6         372.7138  -296.5744  -218.7042 H6            1 RES     
   10852 H6         373.5362  -295.8362  -221.0048 H6            1 RES     
   10853 H6         375.2125  -295.7731  -220.3489 H6            1 RES     
   10854 H6         375.1561  -298.2326  -219.9219 H6            1 RES     
   10855 H6         374.9057  -297.7991  -221.6508 H6            1 RES     
   10856 H6         372.6707  -298.6192  -219.6844 H6            1 RES     
   10857 H6         372.4431  -298.1232  -221.4119 H6            1 RES     
   10858 H6         373.3772  -299.6109  -221.0022 H6            1 RES     
   10859 H6         369.0938  -293.4052  -214.9569 H6            1 RES     
   10860 H6         367.4684  -293.7101  -214.8882 H6            1 RES     
   10861 H6         368.6564  -291.5797  -213.7778 H6            1 RES     
   10862 H6         368.4046  -290.7850  -215.3624 H6            1 RES     
   10863 H6         366.2971  -292.1111  -213.4521 H6            1 RES     
   10864 H6         365.8979  -291.3233  -214.9942 H6            1 RES     
   10865 H6         366.6220  -289.1497  -214.2799 H6            1 RES     
   10866 H6         365.2577  -289.9144  -213.3804 H6            1 RES     
   10867 H6         366.6176  -290.4904  -211.5030 H6            1 RES     
   10868 H6         368.0612  -289.6744  -212.2303 H6            1 RES     
   10869 H6         366.8036  -287.5327  -212.3973 H6            1 RES     
   10870 H6         365.3011  -288.2949  -211.7744 H6            1 RES     
   10871 H6         366.4347  -286.9102  -210.0927 H6            1 RES     
   10872 H6         367.8975  -287.9639  -210.1570 H6            1 RES     
   10873 H6         366.4703  -289.9021  -209.3396 H6            1 RES     
   10874 H6         366.3760  -288.4975  -208.2234 H6            1 RES     
   10875 H6         365.0193  -288.8221  -209.3639 H6            1 RES     
   10876 C0         362.1191  -302.3400  -225.9833 C0            1 RES     
   10877 C1         362.0555  -300.8646  -225.5305 C1            1 RES     
   10878 C1         361.5915  -300.0432  -226.5077 C1            1 RES     
   10879 S2         361.5970  -298.4245  -226.0807 S2            1 RES     
   10880 C1         362.2735  -298.7602  -224.5574 C1            1 RES     
   10881 C1         362.4869  -300.1351  -224.4101 C1            1 RES     
   10882 C1         361.3388  -300.8106  -227.6653 C1            1 RES     
   10883 C1         361.7062  -302.1003  -227.4363 C1            1 RES     
   10884 C1         361.6193  -302.8854  -228.5797 C1            1 RES     
   10885 C1         361.1357  -302.1311  -229.6621 C1            1 RES     
   10886 S2         360.8362  -300.5181  -229.2237 S2            1 RES     
   10887 H3         362.9778  -300.5382  -223.5447 H3            1 RES     
   10888 H3         361.8925  -303.9327  -228.6281 H3            1 RES     
   10889 N4         359.6566  -303.0959  -232.9684 N4            1 RES     
   10890 C1         359.7532  -302.7085  -231.6627 C1            1 RES     
   10891 C1         361.0083  -302.5875  -231.0416 C1            1 RES     
   10892 C1         362.1481  -302.8518  -231.8032 C1            1 RES     
   10893 N4         363.4184  -302.7174  -231.3431 N4            1 RES     
   10894 S2         364.3166  -303.0957  -232.6780 S2            1 RES     
   10895 N4         363.1823  -303.4319  -233.8351 N4            1 RES     
   10896 C1         362.0218  -303.2334  -233.1625 C1            1 RES     
   10897 C1         360.7559  -303.3652  -233.7272 C1            1 RES     
   10898 H5         358.8469  -302.5016  -231.1002 H5            1 RES     
   10899 C0         361.1341  -303.3869  -225.3535 C0            1 RES     
   10900 C0         359.5820  -303.5723  -225.5491 C0            1 RES     
   10901 C0         359.1766  -304.7092  -224.5463 C0            1 RES     
   10902 C0         357.7109  -305.1607  -224.5673 C0            1 RES     
   10903 C0         357.4163  -306.2461  -223.5052 C0            1 RES     
   10904 C0         358.1816  -307.5773  -223.6735 C0            1 RES     
   10905 C0         358.0150  -308.2512  -225.0469 C0            1 RES     
   10906 C0         356.5460  -308.5428  -225.4013 C0            1 RES     
   10907 C0         356.3782  -309.1639  -226.7955 C0            1 RES     
   10908 C0         356.9698  -310.5795  -226.9029 C0            1 RES     
   10909 C0         356.6956  -311.2356  -228.2655 C0            1 RES     
   10910 C0         357.3951  -310.5278  -229.4266 C0            1 RES     
   10911 C0         358.6361  -302.3316  -225.4432 C0            1 RES     
   10912 C0         358.5041  -301.5878  -224.0786 C0            1 RES     
   10913 C0         358.9271  -300.1277  -224.2667 C0            1 RES     
   10914 C0         359.1928  -299.2919  -223.0179 C0            1 RES     
   10915 C0         357.9702  -298.7350  -222.3033 C0            1 RES     
   10916 C0         358.4668  -297.8912  -221.1106 C0            1 RES     
   10917 C0         357.3673  -297.1014  -220.3968 C0            1 RES     
   10918 C0         356.8014  -295.9777  -221.2675 C0            1 RES     
   10919 H6         361.2532  -303.3126  -224.3028 H6            1 RES     
   10920 H6         361.5473  -304.3724  -225.6661 H6            1 RES     
   10921 H6         359.4353  -303.9483  -226.5862 H6            1 RES     
   10922 H6         359.4031  -304.3805  -223.5085 H6            1 RES     
   10923 H6         359.8118  -305.5945  -224.7637 H6            1 RES     
   10924 H6         357.4371  -305.5196  -225.5802 H6            1 RES     
   10925 H6         357.0601  -304.2993  -224.3150 H6            1 RES     
   10926 H6         356.3267  -306.4552  -223.5189 H6            1 RES     
   10927 H6         357.6466  -305.8425  -222.4943 H6            1 RES     
   10928 H6         357.8329  -308.2777  -222.8822 H6            1 RES     
   10929 H6         359.2660  -307.4103  -223.4992 H6            1 RES     
   10930 H6         358.4617  -307.6025  -225.8296 H6            1 RES     
   10931 H6         358.5931  -309.1982  -225.0217 H6            1 RES     
   10932 H6         355.9854  -307.5860  -225.4199 H6            1 RES     
   10933 H6         356.0869  -309.2020  -224.6323 H6            1 RES     
   10934 H6         355.2881  -309.2278  -227.0049 H6            1 RES     
   10935 H6         356.8369  -308.4833  -227.5432 H6            1 RES     
   10936 H6         358.0653  -310.5672  -226.7261 H6            1 RES     
   10937 H6         356.4954  -311.2123  -226.1214 H6            1 RES     
   10938 H6         355.6003  -311.2691  -228.4543 H6            1 RES     
   10939 H6         357.0713  -312.2808  -228.2274 H6            1 RES     
   10940 H6         357.0229  -309.4910  -229.5515 H6            1 RES     
   10941 H6         358.4927  -310.5077  -229.2574 H6            1 RES     
   10942 H6         357.1910  -311.0782  -230.3688 H6            1 RES     
   10943 H6         357.6143  -302.6634  -225.7262 H6            1 RES     
   10944 H6         358.8946  -301.6271  -226.2626 H6            1 RES     
   10945 H6         357.4497  -301.6008  -223.7221 H6            1 RES     
   10946 H6         359.1341  -302.0830  -223.3121 H6            1 RES     
   10947 H6         358.2749  -299.5892  -224.9862 H6            1 RES     
   10948 H6         359.8960  -300.2090  -224.7116 H6            1 RES     
   10949 H6         359.8220  -299.8644  -222.3320 H6            1 RES     
   10950 H6         359.7880  -298.4115  -223.3511 H6            1 RES     
   10951 H6         357.4224  -298.1031  -223.0342 H6            1 RES     
   10952 H6         357.3016  -299.5476  -221.9485 H6            1 RES     
   10953 H6         358.9470  -298.5799  -220.3789 H6            1 RES     
   10954 H6         359.2413  -297.1635  -221.4440 H6            1 RES     
   10955 H6         357.8207  -296.6279  -219.4983 H6            1 RES     
   10956 H6         356.5573  -297.7837  -220.0636 H6            1 RES     
   10957 H6         356.2953  -296.3770  -222.1684 H6            1 RES     
   10958 H6         356.0610  -295.3939  -220.6838 H6            1 RES     
   10959 H6         357.6181  -295.2910  -221.5842 H6            1 RES     
   10960 C0         363.6312  -302.7607  -225.8044 C0            1 RES     
   10961 C0         364.1835  -303.8160  -224.7426 C0            1 RES     
   10962 C0         365.7064  -303.5014  -224.5575 C0            1 RES     
   10963 C0         366.5154  -304.5585  -223.7790 C0            1 RES     
   10964 C0         368.0006  -304.1974  -223.6006 C0            1 RES     
   10965 C0         368.8044  -304.0124  -224.9001 C0            1 RES     
   10966 C0         368.7366  -305.1921  -225.8841 C0            1 RES     
   10967 C0         369.2079  -306.5247  -225.2758 C0            1 RES     
   10968 C0         369.1291  -307.6944  -226.2703 C0            1 RES     
   10969 C0         370.1156  -307.5507  -227.4431 C0            1 RES     
   10970 C0         370.1282  -308.7761  -228.3703 C0            1 RES     
   10971 C0         368.8086  -308.9840  -229.1135 C0            1 RES     
   10972 C0         363.4979  -304.1647  -223.3550 C0            1 RES     
   10973 C0         363.4286  -303.1374  -222.1898 C0            1 RES     
   10974 C0         362.0124  -302.5663  -221.9954 C0            1 RES     
   10975 C0         361.8481  -301.5038  -220.9212 C0            1 RES     
   10976 C0         361.9106  -301.9700  -219.4735 C0            1 RES     
   10977 C0         361.5458  -300.7578  -218.5924 C0            1 RES     
   10978 C0         361.4060  -301.0752  -217.1025 C0            1 RES     
   10979 C0         360.2006  -301.9700  -216.8099 C0            1 RES     
   10980 H6         364.2393  -301.8293  -225.7300 H6            1 RES     
   10981 H6         363.9823  -303.1530  -226.7857 H6            1 RES     
   10982 H6         364.1102  -304.7904  -225.2785 H6            1 RES     
   10983 H6         365.8149  -302.5229  -224.0417 H6            1 RES     
   10984 H6         366.1583  -303.4067  -225.5683 H6            1 RES     
   10985 H6         366.4173  -305.5418  -224.2850 H6            1 RES     
   10986 H6         366.1288  -304.6550  -222.7460 H6            1 RES     
   10987 H6         368.4734  -305.0008  -222.9962 H6            1 RES     
   10988 H6         368.0804  -303.2601  -223.0070 H6            1 RES     
   10989 H6         369.8654  -303.8305  -224.6209 H6            1 RES     
   10990 H6         368.4448  -303.1029  -225.4271 H6            1 RES     
   10991 H6         367.6957  -305.3073  -226.2550 H6            1 RES     
   10992 H6         369.3763  -304.9221  -226.7490 H6            1 RES     
   10993 H6         368.5457  -306.7845  -224.4237 H6            1 RES     
   10994 H6         370.2465  -306.4272  -224.8920 H6            1 RES     
   10995 H6         369.3827  -308.6244  -225.7163 H6            1 RES     
   10996 H6         368.0848  -307.7823  -226.6381 H6            1 RES     
   10997 H6         369.8852  -306.6505  -228.0492 H6            1 RES     
   10998 H6         371.1383  -307.4369  -227.0218 H6            1 RES     
   10999 H6         370.3755  -309.6886  -227.7854 H6            1 RES     
   11000 H6         370.9264  -308.6245  -229.1286 H6            1 RES     
   11001 H6         367.9779  -309.1940  -228.4099 H6            1 RES     
   11002 H6         368.5624  -308.0849  -229.7176 H6            1 RES     
   11003 H6         368.9060  -309.8539  -229.7965 H6            1 RES     
   11004 H6         364.0849  -305.0141  -222.9600 H6            1 RES     
   11005 H6         362.5394  -304.7057  -223.4657 H6            1 RES     
   11006 H6         363.6362  -303.6846  -221.2439 H6            1 RES     
   11007 H6         364.2093  -302.3580  -222.3010 H6            1 RES     
   11008 H6         361.2845  -303.3919  -221.8256 H6            1 RES     
   11009 H6         361.7078  -302.0319  -222.8883 H6            1 RES     
   11010 H6         362.5555  -300.6664  -221.1062 H6            1 RES     
   11011 H6         360.8151  -301.1383  -221.0433 H6            1 RES     
   11012 H6         361.1650  -302.7832  -219.3469 H6            1 RES     
   11013 H6         362.9198  -302.3557  -219.2190 H6            1 RES     
   11014 H6         362.3372  -299.9871  -218.7223 H6            1 RES     
   11015 H6         360.5826  -300.3104  -218.9304 H6            1 RES     
   11016 H6         361.2415  -300.1111  -216.5732 H6            1 RES     
   11017 H6         362.3392  -301.5350  -216.7209 H6            1 RES     
   11018 H6         360.3149  -302.9690  -217.2755 H6            1 RES     
   11019 H6         360.1040  -302.1070  -215.7134 H6            1 RES     
   11020 H6         359.2684  -301.4960  -217.1883 H6            1 RES     
   11021 C0         360.2054  -306.3647  -238.2303 C0            1 RES     
   11022 C1         360.2979  -305.2235  -237.1935 C1            1 RES     
   11023 C1         360.4491  -304.0059  -237.7766 C1            1 RES     
   11024 S2         360.6450  -302.7573  -236.6789 S2            1 RES     
   11025 C1         360.5769  -303.8218  -235.3549 C1            1 RES     
   11026 C1         360.4050  -305.1387  -235.7953 C1            1 RES     
   11027 C1         360.5077  -304.1761  -239.1768 C1            1 RES     
   11028 C1         360.4601  -305.5040  -239.4687 C1            1 RES     
   11029 C1         360.6572  -305.7550  -240.8213 C1            1 RES     
   11030 C1         360.8173  -304.5520  -241.5294 C1            1 RES     
   11031 S2         360.7353  -303.2005  -240.5046 S2            1 RES     
   11032 H3         360.4143  -305.9660  -235.1113 H3            1 RES     
   11033 H3         360.6881  -306.7431  -241.2646 H3            1 RES     
   11034 N4         360.5804  -303.7004  -245.1720 N4            1 RES     
   11035 C1         360.2402  -303.8526  -243.8586 C1            1 RES     
   11036 C1         361.1438  -304.4226  -242.9451 C1            1 RES     
   11037 C1         362.4015  -304.8052  -243.4148 C1            1 RES     
   11038 N4         363.3848  -305.3135  -242.6286 N4            1 RES     
   11039 S2         364.6266  -305.5078  -243.7019 S2            1 RES     
   11040 N4         363.9936  -304.9826  -245.1378 N4            1 RES     
   11041 C1         362.7376  -304.6186  -244.7792 C1            1 RES     
   11042 C1         361.7998  -304.0734  -245.6522 C1            1 RES     
   11043 H5         359.2562  -303.5363  -243.5233 H5            1 RES     
   11044 C0         358.8471  -307.1260  -238.4256 C0            1 RES     
   11045 C0         357.4970  -306.6499  -239.0833 C0            1 RES     
   11046 C0         356.4898  -307.8302  -238.8494 C0            1 RES     
   11047 C0         355.0896  -307.6760  -239.4560 C0            1 RES     
   11048 C0         354.1694  -308.8729  -239.1191 C0            1 RES     
   11049 C0         354.6237  -310.2450  -239.6640 C0            1 RES     
   11050 C0         354.8645  -310.2913  -241.1832 C0            1 RES     
   11051 C0         353.6276  -309.8824  -242.0026 C0            1 RES     
   11052 C0         353.8872  -309.8755  -243.5159 C0            1 RES     
   11053 C0         354.1439  -311.2779  -244.0928 C0            1 RES     
   11054 C0         354.2883  -311.2731  -245.6229 C0            1 RES     
   11055 C0         355.5252  -310.5165  -246.1088 C0            1 RES     
   11056 C0         356.8860  -305.2682  -238.6799 C0            1 RES     
   11057 C0         356.3975  -305.0491  -237.2150 C0            1 RES     
   11058 C0         357.1724  -303.8777  -236.6038 C0            1 RES     
   11059 C0         357.1047  -303.6849  -235.0915 C0            1 RES     
   11060 C0         355.8564  -303.0029  -234.5512 C0            1 RES     
   11061 C0         356.0187  -302.8683  -233.0225 C0            1 RES     
   11062 C0         354.9320  -302.0301  -232.3453 C0            1 RES     
   11063 C0         355.0175  -300.5509  -232.7275 C0            1 RES     
   11064 H6         358.5576  -307.4687  -237.4651 H6            1 RES     
   11065 H6         359.1202  -308.0206  -239.0295 H6            1 RES     
   11066 H6         357.6898  -306.5623  -240.1759 H6            1 RES     
   11067 H6         356.3576  -307.9880  -237.7566 H6            1 RES     
   11068 H6         356.9460  -308.7525  -239.2686 H6            1 RES     
   11069 H6         355.1630  -307.5355  -240.5536 H6            1 RES     
   11070 H6         354.6004  -306.7807  -239.0220 H6            1 RES     
   11071 H6         353.1557  -308.6496  -239.5112 H6            1 RES     
   11072 H6         354.0678  -308.9581  -238.0145 H6            1 RES     
   11073 H6         353.8467  -310.9959  -239.3979 H6            1 RES     
   11074 H6         355.5603  -310.5584  -239.1554 H6            1 RES     
   11075 H6         355.7141  -309.6239  -241.4397 H6            1 RES     
   11076 H6         355.1609  -311.3299  -241.4385 H6            1 RES     
   11077 H6         353.3464  -308.8441  -241.7327 H6            1 RES     
   11078 H6         352.7700  -310.5496  -241.7658 H6            1 RES     
   11079 H6         352.9821  -309.4589  -244.0094 H6            1 RES     
   11080 H6         354.7408  -309.1971  -243.7250 H6            1 RES     
   11081 H6         355.0552  -311.7297  -243.6491 H6            1 RES     
   11082 H6         353.2735  -311.9210  -243.8374 H6            1 RES     
   11083 H6         353.3772  -310.8355  -246.0864 H6            1 RES     
   11084 H6         354.3773  -312.3268  -245.9648 H6            1 RES     
   11085 H6         355.4717  -309.4413  -245.8439 H6            1 RES     
   11086 H6         356.4431  -310.9597  -245.6675 H6            1 RES     
   11087 H6         355.5908  -310.5914  -247.2145 H6            1 RES     
   11088 H6         356.0113  -305.0826  -239.3393 H6            1 RES     
   11089 H6         357.5943  -304.4710  -238.9918 H6            1 RES     
   11090 H6         355.3135  -304.7973  -237.1936 H6            1 RES     
   11091 H6         356.5495  -305.9727  -236.6204 H6            1 RES     
   11092 H6         356.9918  -302.9249  -237.1445 H6            1 RES     
   11093 H6         358.1940  -304.1491  -236.7655 H6            1 RES     
   11094 H6         357.2706  -304.6471  -234.6007 H6            1 RES     
   11095 H6         357.9620  -303.0272  -234.8211 H6            1 RES     
   11096 H6         355.7941  -302.0037  -235.0320 H6            1 RES     
   11097 H6         354.9403  -303.5826  -234.7918 H6            1 RES     
   11098 H6         356.0076  -303.8922  -232.5846 H6            1 RES     
   11099 H6         357.0022  -302.4082  -232.7743 H6            1 RES     
   11100 H6         355.0891  -302.0978  -231.2463 H6            1 RES     
   11101 H6         353.9269  -302.4380  -232.5825 H6            1 RES     
   11102 H6         354.8306  -300.3990  -233.8089 H6            1 RES     
   11103 H6         354.2567  -299.9772  -232.1602 H6            1 RES     
   11104 H6         356.0229  -300.1475  -232.4725 H6            1 RES     
   11105 C0         361.3919  -307.3440  -237.8715 C0            1 RES     
   11106 C0         361.2345  -308.8250  -237.2989 C0            1 RES     
   11107 C0         362.5911  -309.1752  -236.5994 C0            1 RES     
   11108 C0         362.7737  -310.6539  -236.2018 C0            1 RES     
   11109 C0         364.1096  -310.9478  -235.4967 C0            1 RES     
   11110 C0         365.3780  -310.6331  -236.3098 C0            1 RES     
   11111 C0         365.4422  -311.2872  -237.7000 C0            1 RES     
   11112 C0         365.3290  -312.8213  -237.6608 C0            1 RES     
   11113 C0         365.3898  -313.4590  -239.0583 C0            1 RES     
   11114 C0         366.7624  -313.2908  -239.7341 C0            1 RES     
   11115 C0         366.8660  -314.0334  -241.0754 C0            1 RES     
   11116 C0         365.9335  -313.4725  -242.1492 C0            1 RES     
   11117 C0         360.0008  -309.3549  -236.4539 C0            1 RES     
   11118 C0         359.7093  -308.8449  -235.0142 C0            1 RES     
   11119 C0         358.4953  -307.9000  -234.9617 C0            1 RES     
   11120 C0         358.1625  -307.2933  -233.6085 C0            1 RES     
   11121 C0         357.5470  -308.2195  -232.5691 C0            1 RES     
   11122 C0         357.1442  -307.3433  -231.3654 C0            1 RES     
   11123 C0         356.3644  -308.0815  -230.2757 C0            1 RES     
   11124 C0         354.9753  -308.5140  -230.7473 C0            1 RES     
   11125 H6         362.1120  -306.7878  -237.2272 H6            1 RES     
   11126 H6         362.0035  -307.4722  -238.7932 H6            1 RES     
   11127 H6         361.1635  -309.4546  -238.2158 H6            1 RES     
   11128 H6         362.7024  -308.5480  -235.6886 H6            1 RES     
   11129 H6         363.4122  -308.9094  -237.2995 H6            1 RES     
   11130 H6         362.6668  -311.2925  -237.1037 H6            1 RES     
   11131 H6         362.0018  -310.9528  -235.4664 H6            1 RES     
   11132 H6         364.1165  -312.0240  -235.2210 H6            1 RES     
   11133 H6         364.1555  -310.3726  -234.5459 H6            1 RES     
   11134 H6         366.2559  -310.9612  -235.7112 H6            1 RES     
   11135 H6         365.4653  -309.5336  -236.4419 H6            1 RES     
   11136 H6         364.6330  -310.8771  -238.3413 H6            1 RES     
   11137 H6         366.4124  -310.9892  -238.1472 H6            1 RES     
   11138 H6         364.3459  -313.0978  -237.2257 H6            1 RES     
   11139 H6         366.1272  -313.2503  -237.0171 H6            1 RES     
   11140 H6         365.1927  -314.5468  -238.9403 H6            1 RES     
   11141 H6         364.5823  -313.0252  -239.6855 H6            1 RES     
   11142 H6         366.9940  -312.2192  -239.9039 H6            1 RES     
   11143 H6         367.5353  -313.7128  -239.0552 H6            1 RES     
   11144 H6         366.6551  -315.1144  -240.9249 H6            1 RES     
   11145 H6         367.9097  -313.9327  -241.4438 H6            1 RES     
   11146 H6         364.8693  -313.5930  -241.8624 H6            1 RES     
   11147 H6         366.1500  -312.3968  -242.3219 H6            1 RES     
   11148 H6         366.0957  -314.0236  -243.0993 H6            1 RES     
   11149 H6         360.1816  -310.4402  -236.3475 H6            1 RES     
   11150 H6         359.0687  -309.4328  -237.0445 H6            1 RES     
   11151 H6         359.4023  -309.7207  -234.4010 H6            1 RES     
   11152 H6         360.6226  -308.4192  -234.5515 H6            1 RES     
   11153 H6         357.5959  -308.4051  -235.3814 H6            1 RES     
   11154 H6         358.6921  -307.0180  -235.5608 H6            1 RES     
   11155 H6         359.0521  -306.7652  -233.2017 H6            1 RES     
   11156 H6         357.3693  -306.5569  -233.8182 H6            1 RES     
   11157 H6         356.6515  -308.6925  -233.0247 H6            1 RES     
   11158 H6         358.2626  -309.0104  -232.2618 H6            1 RES     
   11159 H6         358.0724  -306.9226  -230.9197 H6            1 RES     
   11160 H6         356.5160  -306.4872  -231.7037 H6            1 RES     
   11161 H6         356.2235  -307.3713  -229.4315 H6            1 RES     
   11162 H6         356.9459  -308.9524  -229.9136 H6            1 RES     
   11163 H6         355.0386  -309.2579  -231.5662 H6            1 RES     
   11164 H6         354.4284  -308.9761  -229.9001 H6            1 RES     
   11165 H6         354.3965  -307.6322  -231.1000 H6            1 RES     
   11166 C0         362.4108  -304.9058  -250.9919 C0            1 RES     
   11167 C1         362.3394  -304.3123  -249.5677 C1            1 RES     
   11168 C1         362.9729  -303.1144  -249.4741 C1            1 RES     
   11169 S2         362.9937  -302.4871  -247.9222 S2            1 RES     
   11170 C1         362.1775  -303.8395  -247.2931 C1            1 RES     
   11171 C1         361.9052  -304.7618  -248.3094 C1            1 RES     
   11172 C1         363.5369  -302.7987  -250.7291 C1            1 RES     
   11173 C1         363.3147  -303.8274  -251.5912 C1            1 RES     
   11174 C1         363.9658  -303.6488  -252.8059 C1            1 RES     
   11175 C1         364.6531  -302.4234  -252.8232 C1            1 RES     
   11176 S2         364.4772  -301.5802  -251.3598 S2            1 RES     
   11177 H3         361.4618  -305.7163  -248.0982 H3            1 RES     
   11178 H3         363.9484  -304.3604  -253.6227 H3            1 RES     
   11179 N4         366.0596  -300.3415  -255.6049 N4            1 RES     
   11180 C1         365.2068  -300.8025  -254.6434 C1            1 RES     
   11181 C1         365.5287  -301.9418  -253.8857 C1            1 RES     
   11182 C1         366.7511  -302.5706  -254.1292 C1            1 RES     
   11183 N4         367.2078  -303.6418  -253.4311 N4            1 RES     
   11184 S2         368.6945  -303.8935  -254.1081 S2            1 RES     
   11185 N4         368.8091  -302.7114  -255.2604 N4            1 RES     
   11186 C1         367.6278  -302.0608  -255.1195 C1            1 RES     
   11187 C1         367.2540  -300.9445  -255.8630 C1            1 RES     
   11188 H5         364.2669  -300.2847  -254.4727 H5            1 RES     
   11189 C0         361.1061  -304.9983  -251.8591 C0            1 RES     
   11190 C0         360.2645  -303.8650  -252.5585 C0            1 RES     
   11191 C0         359.0120  -304.5965  -253.1574 C0            1 RES     
   11192 C0         358.0342  -303.7406  -253.9720 C0            1 RES     
   11193 C0         356.8153  -304.5539  -254.4678 C0            1 RES     
   11194 C0         357.1307  -305.7172  -255.4338 C0            1 RES     
   11195 C0         357.9315  -305.3201  -256.6864 C0            1 RES     
   11196 C0         357.2394  -304.2305  -257.5244 C0            1 RES     
   11197 C0         358.0665  -303.7963  -258.7430 C0            1 RES     
   11198 C0         358.2113  -304.9025  -259.8018 C0            1 RES     
   11199 C0         358.9417  -304.4221  -261.0659 C0            1 RES     
   11200 C0         360.4042  -304.0537  -260.8133 C0            1 RES     
   11201 C0         359.8669  -302.5871  -251.7499 C0            1 RES     
   11202 C0         358.9045  -302.7253  -250.5302 C0            1 RES     
   11203 C0         359.6160  -302.2087  -249.2761 C0            1 RES     
   11204 C0         359.0049  -302.5402  -247.9176 C0            1 RES     
   11205 C0         357.8295  -301.6805  -247.4760 C0            1 RES     
   11206 C0         357.4044  -302.1523  -246.0696 C0            1 RES     
   11207 C0         356.3543  -301.2642  -245.3983 C0            1 RES     
   11208 C0         356.9083  -299.8856  -245.0324 C0            1 RES     
   11209 H6         360.3949  -305.5204  -251.2714 H6            1 RES     
   11210 H6         361.3888  -305.6624  -252.7069 H6            1 RES     
   11211 H6         360.8847  -303.4823  -253.3996 H6            1 RES     
   11212 H6         358.4303  -305.0622  -252.3320 H6            1 RES     
   11213 H6         359.3794  -305.4154  -253.8122 H6            1 RES     
   11214 H6         358.5615  -303.2666  -254.8247 H6            1 RES     
   11215 H6         357.6256  -302.9380  -253.3254 H6            1 RES     
   11216 H6         356.1137  -303.8540  -254.9669 H6            1 RES     
   11217 H6         356.2723  -304.9722  -253.5914 H6            1 RES     
   11218 H6         356.1663  -306.1732  -255.7506 H6            1 RES     
   11219 H6         357.6979  -306.5069  -254.8963 H6            1 RES     
   11220 H6         358.9385  -304.9662  -256.3802 H6            1 RES     
   11221 H6         358.0662  -306.2377  -257.2961 H6            1 RES     
   11222 H6         357.1125  -303.3239  -256.8983 H6            1 RES     
   11223 H6         356.2331  -304.5745  -257.8494 H6            1 RES     
   11224 H6         357.5444  -302.9343  -259.2126 H6            1 RES     
   11225 H6         359.0609  -303.4508  -258.3903 H6            1 RES     
   11226 H6         358.7506  -305.7800  -259.3890 H6            1 RES     
   11227 H6         357.1916  -305.2274  -260.1034 H6            1 RES     
   11228 H6         358.4071  -303.5501  -261.5020 H6            1 RES     
   11229 H6         358.9218  -305.2468  -261.8107 H6            1 RES     
   11230 H6         360.4906  -303.1969  -260.1151 H6            1 RES     
   11231 H6         360.9522  -304.9254  -260.3969 H6            1 RES     
   11232 H6         360.8800  -303.7601  -261.7724 H6            1 RES     
   11233 H6         359.3859  -301.8783  -252.4575 H6            1 RES     
   11234 H6         360.7982  -302.0501  -251.4692 H6            1 RES     
   11235 H6         357.9841  -302.1181  -250.6825 H6            1 RES     
   11236 H6         358.6022  -303.7845  -250.4014 H6            1 RES     
   11237 H6         359.8780  -301.1324  -249.3532 H6            1 RES     
   11238 H6         360.5312  -302.7614  -249.2687 H6            1 RES     
   11239 H6         358.7472  -303.6018  -247.8911 H6            1 RES     
   11240 H6         359.8098  -302.3796  -247.1646 H6            1 RES     
   11241 H6         358.1840  -300.6283  -247.4502 H6            1 RES     
   11242 H6         356.9777  -301.7625  -248.1838 H6            1 RES     
   11243 H6         356.9959  -303.1842  -246.1625 H6            1 RES     
   11244 H6         358.2870  -302.2009  -245.3919 H6            1 RES     
   11245 H6         356.0484  -301.7603  -244.4509 H6            1 RES     
   11246 H6         355.4598  -301.1663  -246.0486 H6            1 RES     
   11247 H6         357.1995  -299.3120  -245.9344 H6            1 RES     
   11248 H6         356.1337  -299.3075  -244.4889 H6            1 RES     
   11249 H6         357.7952  -299.9936  -244.3687 H6            1 RES     
   11250 C0         363.1123  -306.3105  -250.8178 C0            1 RES     
   11251 C0         362.4190  -307.7302  -251.0411 C0            1 RES     
   11252 C0         363.2780  -308.7716  -250.2474 C0            1 RES     
   11253 C0         362.9573  -310.2534  -250.5297 C0            1 RES     
   11254 C0         363.8082  -311.2404  -249.7111 C0            1 RES     
   11255 C0         365.3293  -311.1522  -249.9290 C0            1 RES     
   11256 C0         365.7871  -311.2600  -251.3930 C0            1 RES     
   11257 C0         365.3308  -312.5574  -252.0834 C0            1 RES     
   11258 C0         365.7921  -312.6473  -253.5471 C0            1 RES     
   11259 C0         367.3199  -312.7712  -253.6869 C0            1 RES     
   11260 C0         367.7742  -312.9869  -255.1389 C0            1 RES     
   11261 C0         367.4873  -311.7895  -256.0451 C0            1 RES     
   11262 C0         360.8686  -308.0281  -250.8843 C0            1 RES     
   11263 C0         360.1564  -307.9786  -249.5029 C0            1 RES     
   11264 C0         359.2615  -306.7357  -249.3491 C0            1 RES     
   11265 C0         358.5678  -306.5576  -248.0086 C0            1 RES     
   11266 C0         357.4053  -307.4916  -247.7031 C0            1 RES     
   11267 C0         356.7675  -307.0033  -246.3864 C0            1 RES     
   11268 C0         355.4803  -307.7321  -245.9962 C0            1 RES     
   11269 C0         354.3295  -307.4337  -246.9583 C0            1 RES     
   11270 H6         363.6255  -306.3167  -249.8281 H6            1 RES     
   11271 H6         363.9915  -306.3267  -251.5010 H6            1 RES     
   11272 H6         362.5758  -307.9310  -252.1261 H6            1 RES     
   11273 H6         363.1588  -308.5855  -249.1582 H6            1 RES     
   11274 H6         364.3445  -308.6008  -250.5085 H6            1 RES     
   11275 H6         363.0743  -310.4540  -251.6153 H6            1 RES     
   11276 H6         361.9135  -310.4830  -250.2405 H6            1 RES     
   11277 H6         363.4677  -312.2679  -249.9612 H6            1 RES     
   11278 H6         363.6035  -311.0891  -248.6284 H6            1 RES     
   11279 H6         365.8054  -311.9642  -249.3369 H6            1 RES     
   11280 H6         365.7026  -310.1886  -249.5212 H6            1 RES     
   11281 H6         365.4072  -310.3875  -251.9664 H6            1 RES     
   11282 H6         366.8948  -311.2035  -251.3849 H6            1 RES     
   11283 H6         364.2212  -312.5864  -252.0955 H6            1 RES     
   11284 H6         365.6957  -313.4429  -251.5194 H6            1 RES     
   11285 H6         365.3289  -313.5556  -253.9904 H6            1 RES     
   11286 H6         365.4134  -311.7599  -254.0973 H6            1 RES     
   11287 H6         367.8307  -311.8716  -253.2860 H6            1 RES     
   11288 H6         367.6500  -313.6536  -253.0964 H6            1 RES     
   11289 H6         367.2873  -313.8955  -255.5551 H6            1 RES     
   11290 H6         368.8727  -313.1549  -255.1336 H6            1 RES     
   11291 H6         366.3981  -311.6028  -256.1343 H6            1 RES     
   11292 H6         367.9867  -310.8798  -255.6488 H6            1 RES     
   11293 H6         367.8828  -311.9964  -257.0617 H6            1 RES     
   11294 H6         360.7478  -309.0688  -251.2372 H6            1 RES     
   11295 H6         360.2510  -307.5497  -251.6675 H6            1 RES     
   11296 H6         359.4477  -308.8347  -249.4570 H6            1 RES     
   11297 H6         360.8845  -308.1054  -248.6763 H6            1 RES     
   11298 H6         358.5113  -306.6975  -250.1714 H6            1 RES     
   11299 H6         359.8676  -305.8387  -249.4091 H6            1 RES     
   11300 H6         359.3194  -306.5679  -247.1895 H6            1 RES     
   11301 H6         358.1051  -305.5583  -248.0622 H6            1 RES     
   11302 H6         356.6798  -307.4146  -248.5404 H6            1 RES     
   11303 H6         357.7483  -308.5432  -247.6114 H6            1 RES     
   11304 H6         357.5145  -307.1340  -245.5727 H6            1 RES     
   11305 H6         356.5292  -305.9166  -246.4523 H6            1 RES     
   11306 H6         355.1805  -307.3588  -244.9924 H6            1 RES     
   11307 H6         355.6644  -308.8227  -245.9291 H6            1 RES     
   11308 H6         354.5425  -307.8164  -247.9762 H6            1 RES     
   11309 H6         353.4064  -307.9255  -246.5887 H6            1 RES     
   11310 H6         354.1465  -306.3380  -247.0118 H6            1 RES     
   11311 C0         369.7102  -300.0411  -260.6306 C0            1 RES     
   11312 C1         369.2190  -299.9947  -259.1669 C1            1 RES     
   11313 C1         370.0133  -299.2243  -258.3790 C1            1 RES     
   11314 S2         369.5620  -299.2267  -256.7669 S2            1 RES     
   11315 C1         368.2869  -300.3134  -257.0567 C1            1 RES     
   11316 C1         368.2381  -300.6590  -258.4117 C1            1 RES     
   11317 C1         371.0792  -298.7243  -259.1579 C1            1 RES     
   11318 C1         370.9912  -299.2335  -260.4164 C1            1 RES     
   11319 C1         372.0886  -298.8977  -261.2001 C1            1 RES     
   11320 C1         372.9805  -298.0850  -260.4801 C1            1 RES     
   11321 S2         372.4361  -297.7982  -258.8975 S2            1 RES     
   11322 H3         367.5480  -301.3942  -258.7798 H3            1 RES     
   11323 H3         372.2359  -299.2237  -262.2228 H3            1 RES     
   11324 N4         375.7888  -295.8401  -261.5402 N4            1 RES     
   11325 C1         374.5481  -296.2583  -261.1530 C1            1 RES     
   11326 C1         374.2858  -297.6224  -260.9381 C1            1 RES     
   11327 C1         375.3332  -298.5292  -261.1095 C1            1 RES     
   11328 N4         375.2297  -299.8633  -260.8793 N4            1 RES     
   11329 S2         376.7667  -300.3913  -261.1801 S2            1 RES     
   11330 N4         377.5831  -299.0137  -261.5974 N4            1 RES     
   11331 C1         376.6174  -298.0676  -261.4929 C1            1 RES     
   11332 C1         376.8228  -296.7092  -261.7197 C1            1 RES     
   11333 H5         373.7568  -295.5257  -261.0198 H5            1 RES     
   11334 C0         368.8652  -299.3432  -261.7538 C0            1 RES     
   11335 C0         368.6394  -297.8141  -262.0581 C0            1 RES     
   11336 C0         367.5942  -297.7800  -263.2280 C0            1 RES     
   11337 C0         367.2305  -296.4008  -263.7917 C0            1 RES     
   11338 C0         366.1568  -296.4854  -264.9020 C0            1 RES     
   11339 C0         366.5596  -297.2718  -266.1689 C0            1 RES     
   11340 C0         367.8540  -296.7891  -266.8469 C0            1 RES     
   11341 C0         367.8064  -295.3045  -267.2497 C0            1 RES     
   11342 C0         369.1191  -294.8111  -267.8750 C0            1 RES     
   11343 C0         369.4187  -295.4536  -269.2399 C0            1 RES     
   11344 C0         370.6732  -294.8692  -269.9084 C0            1 RES     
   11345 C0         371.9613  -295.1740  -269.1427 C0            1 RES     
   11346 C0         368.2503  -296.8440  -260.8950 C0            1 RES     
   11347 C0         366.8820  -297.0326  -260.1705 C0            1 RES     
   11348 C0         367.1395  -297.2806  -258.6811 C0            1 RES     
   11349 C0         365.9874  -297.8128  -257.8335 C0            1 RES     
   11350 C0         364.9554  -296.7922  -257.3766 C0            1 RES     
   11351 C0         363.9195  -297.5303  -256.5028 C0            1 RES     
   11352 C0         362.9154  -296.6105  -255.8043 C0            1 RES     
   11353 C0         363.5719  -295.7491  -254.7234 C0            1 RES     
   11354 H6         367.8840  -299.7368  -261.6757 H6            1 RES     
   11355 H6         369.3031  -299.7273  -262.7028 H6            1 RES     
   11356 H6         369.6079  -297.4198  -262.4391 H6            1 RES     
   11357 H6         366.6478  -298.2546  -262.8879 H6            1 RES     
   11358 H6         367.9977  -298.3957  -264.0603 H6            1 RES     
   11359 H6         368.1409  -295.8897  -264.1657 H6            1 RES     
   11360 H6         366.7899  -295.7813  -262.9846 H6            1 RES     
   11361 H6         365.8813  -295.4512  -265.1948 H6            1 RES     
   11362 H6         365.2355  -296.9508  -264.4867 H6            1 RES     
   11363 H6         365.7219  -297.2029  -266.8982 H6            1 RES     
   11364 H6         366.6801  -298.3477  -265.9192 H6            1 RES     
   11365 H6         368.7113  -296.9582  -266.1616 H6            1 RES     
   11366 H6         368.0102  -297.4202  -267.7463 H6            1 RES     
   11367 H6         367.6483  -294.6913  -266.3392 H6            1 RES     
   11368 H6         366.9593  -295.1206  -267.9463 H6            1 RES     
   11369 H6         369.0282  -293.7128  -268.0222 H6            1 RES     
   11370 H6         369.9450  -294.9989  -267.1571 H6            1 RES     
   11371 H6         369.5438  -296.5520  -269.1435 H6            1 RES     
   11372 H6         368.5548  -295.2564  -269.9114 H6            1 RES     
   11373 H6         370.5603  -293.7693  -270.0258 H6            1 RES     
   11374 H6         370.7649  -295.3168  -270.9215 H6            1 RES     
   11375 H6         371.9543  -294.7070  -268.1372 H6            1 RES     
   11376 H6         372.0940  -296.2719  -269.0384 H6            1 RES     
   11377 H6         372.8274  -294.7632  -269.7026 H6            1 RES     
   11378 H6         368.2555  -295.8109  -261.3036 H6            1 RES     
   11379 H6         369.0905  -296.8184  -260.1685 H6            1 RES     
   11380 H6         366.2546  -296.1182  -260.2670 H6            1 RES     
   11381 H6         366.3269  -297.8813  -260.6192 H6            1 RES     
   11382 H6         367.6421  -296.4202  -258.1912 H6            1 RES     
   11383 H6         367.8312  -298.0960  -258.6847 H6            1 RES     
   11384 H6         365.5118  -298.6446  -258.3588 H6            1 RES     
   11385 H6         366.4461  -298.2293  -256.9079 H6            1 RES     
   11386 H6         365.4948  -296.0221  -256.7855 H6            1 RES     
   11387 H6         364.4545  -296.3063  -258.2404 H6            1 RES     
   11388 H6         363.3626  -298.2399  -257.1559 H6            1 RES     
   11389 H6         364.4307  -298.1299  -255.7156 H6            1 RES     
   11390 H6         362.1607  -297.2545  -255.3015 H6            1 RES     
   11391 H6         362.3937  -295.9734  -256.5490 H6            1 RES     
   11392 H6         364.3128  -295.0484  -255.1563 H6            1 RES     
   11393 H6         362.7951  -295.1538  -254.2018 H6            1 RES     
   11394 H6         364.0793  -296.3968  -253.9739 H6            1 RES     
   11395 C0         369.9569  -301.5718  -260.9337 C0            1 RES     
   11396 C0         369.1110  -302.4670  -261.9482 C0            1 RES     
   11397 C0         369.3357  -303.9557  -261.5174 C0            1 RES     
   11398 C0         368.8319  -305.0206  -262.5125 C0            1 RES     
   11399 C0         369.0516  -306.4680  -262.0382 C0            1 RES     
   11400 C0         370.5146  -306.8738  -261.7849 C0            1 RES     
   11401 C0         371.4739  -306.6284  -262.9614 C0            1 RES     
   11402 C0         371.0499  -307.3433  -264.2565 C0            1 RES     
   11403 C0         372.0161  -307.0839  -265.4238 C0            1 RES     
   11404 C0         373.4075  -307.7023  -265.1982 C0            1 RES     
   11405 C0         374.3350  -307.5530  -266.4142 C0            1 RES     
   11406 C0         374.6997  -306.1002  -266.7201 C0            1 RES     
   11407 C0         367.5994  -302.2105  -262.3560 C0            1 RES     
   11408 C0         366.4326  -302.3845  -261.3430 C0            1 RES     
   11409 C0         365.8487  -301.0361  -260.8844 C0            1 RES     
   11410 C0         364.7429  -301.0916  -259.8433 C0            1 RES     
   11411 C0         363.3783  -301.5782  -260.3105 C0            1 RES     
   11412 C0         362.4005  -301.3779  -259.1346 C0            1 RES     
   11413 C0         360.9368  -301.6708  -259.4694 C0            1 RES     
   11414 C0         360.3530  -300.6588  -260.4563 C0            1 RES     
   11415 H6         370.0253  -302.1073  -259.9582 H6            1 RES     
   11416 H6         371.0062  -301.6716  -261.2926 H6            1 RES     
   11417 H6         369.6323  -302.3227  -262.9227 H6            1 RES     
   11418 H6         368.8432  -304.1279  -260.5361 H6            1 RES     
   11419 H6         370.4281  -304.1086  -261.3829 H6            1 RES     
   11420 H6         369.3178  -304.8615  -263.4979 H6            1 RES     
   11421 H6         367.7357  -304.9366  -262.6438 H6            1 RES     
   11422 H6         368.6182  -307.1445  -262.8055 H6            1 RES     
   11423 H6         368.4776  -306.6367  -261.1006 H6            1 RES     
   11424 H6         370.5274  -307.9543  -261.5227 H6            1 RES     
   11425 H6         370.9014  -306.3191  -260.9035 H6            1 RES     
   11426 H6         371.5530  -305.5373  -263.1551 H6            1 RES     
   11427 H6         372.4720  -306.9882  -262.6383 H6            1 RES     
   11428 H6         370.0577  -306.9577  -264.5711 H6            1 RES     
   11429 H6         370.9582  -308.4370  -264.0807 H6            1 RES     
   11430 H6         371.5753  -307.5455  -266.3341 H6            1 RES     
   11431 H6         372.0906  -305.9883  -265.5906 H6            1 RES     
   11432 H6         373.9055  -307.2510  -264.3155 H6            1 RES     
   11433 H6         373.2750  -308.7897  -265.0075 H6            1 RES     
   11434 H6         373.8623  -308.0157  -267.3077 H6            1 RES     
   11435 H6         375.2764  -308.1024  -266.1974 H6            1 RES     
   11436 H6         373.8037  -305.5091  -266.9974 H6            1 RES     
   11437 H6         375.1916  -305.6343  -265.8398 H6            1 RES     
   11438 H6         375.4058  -306.0724  -267.5764 H6            1 RES     
   11439 H6         367.3995  -302.9432  -263.1593 H6            1 RES     
   11440 H6         367.4614  -301.3002  -262.9692 H6            1 RES     
   11441 H6         365.5922  -302.8803  -261.8772 H6            1 RES     
   11442 H6         366.7302  -303.0466  -260.5048 H6            1 RES     
   11443 H6         365.5101  -300.4440  -261.7648 H6            1 RES     
   11444 H6         366.6121  -300.4626  -260.3708 H6            1 RES     
   11445 H6         365.0902  -301.6591  -258.9526 H6            1 RES     
   11446 H6         364.5723  -300.0404  -259.5583 H6            1 RES     
   11447 H6         363.0763  -300.9564  -261.1796 H6            1 RES     
   11448 H6         363.4155  -302.6440  -260.6180 H6            1 RES     
   11449 H6         362.7191  -302.0459  -258.3042 H6            1 RES     
   11450 H6         362.4543  -300.3291  -258.7616 H6            1 RES     
   11451 H6         360.3580  -301.5857  -258.5235 H6            1 RES     
   11452 H6         360.8331  -302.7036  -259.8573 H6            1 RES     
   11453 H6         360.8578  -300.7155  -261.4412 H6            1 RES     
   11454 H6         359.2750  -300.8732  -260.6060 H6            1 RES     
   11455 H6         360.4534  -299.6268  -260.0542 H6            1 RES     
   11456 C0         381.0863  -295.1803  -264.7302 C0            1 RES     
   11457 C1         380.0838  -295.4664  -263.5905 C1            1 RES     
   11458 C1         380.6544  -295.3643  -262.3620 C1            1 RES     
   11459 S2         379.6184  -295.7584  -261.1074 S2            1 RES     
   11460 C1         378.3530  -296.1298  -262.1806 C1            1 RES     
   11461 C1         378.7646  -295.9419  -263.5046 C1            1 RES     
   11462 C1         382.0223  -295.0535  -262.5200 C1            1 RES     
   11463 C1         382.3248  -295.0261  -263.8462 C1            1 RES     
   11464 C1         383.6863  -294.8671  -264.0743 C1            1 RES     
   11465 C1         384.3801  -294.7407  -262.8590 C1            1 RES     
   11466 S2         383.3366  -294.8407  -261.5231 S2            1 RES     
   11467 H3         378.1301  -296.1969  -264.3321 H3            1 RES     
   11468 H3         384.1469  -294.8490  -265.0548 H3            1 RES     
   11469 N4         387.8005  -293.4637  -262.0101 N4            1 RES     
   11470 C1         386.4483  -293.5043  -262.1948 C1            1 RES     
   11471 C1         385.8276  -294.6609  -262.6976 C1            1 RES     
   11472 C1         386.6290  -295.7687  -262.9792 C1            1 RES     
   11473 N4         386.1506  -296.9628  -263.4137 N4            1 RES     
   11474 S2         387.5239  -297.8780  -263.5057 S2            1 RES     
   11475 N4         388.7216  -296.8428  -263.0240 N4            1 RES     
   11476 C1         388.0281  -295.7079  -262.7602 C1            1 RES     
   11477 C1         388.6014  -294.5313  -262.2851 C1            1 RES     
   11478 H5         385.8519  -292.6276  -261.9574 H5            1 RES     
   11479 C0         380.9273  -293.8795  -265.5935 C0            1 RES     
   11480 C0         381.1839  -292.3706  -265.2203 C0            1 RES     
   11481 C0         380.7174  -291.5538  -266.4763 C0            1 RES     
   11482 C0         380.9195  -290.0342  -266.4281 C0            1 RES     
   11483 C0         380.3779  -289.3300  -267.6944 C0            1 RES     
   11484 C0         381.0604  -289.7189  -269.0244 C0            1 RES     
   11485 C0         382.5889  -289.5417  -269.0443 C0            1 RES     
   11486 C0         383.0333  -288.1025  -268.7285 C0            1 RES     
   11487 C0         384.5598  -287.9411  -268.6938 C0            1 RES     
   11488 C0         385.2206  -288.1339  -270.0693 C0            1 RES     
   11489 C0         386.7323  -287.8575  -270.0456 C0            1 RES     
   11490 C0         387.5142  -288.8575  -269.1929 C0            1 RES     
   11491 C0         380.5950  -291.7923  -263.8921 C0            1 RES     
   11492 C0         379.0475  -291.7044  -263.7189 C0            1 RES     
   11493 C0         378.6380  -292.5279  -262.4941 C0            1 RES     
   11494 C0         377.1591  -292.8586  -262.3146 C0            1 RES     
   11495 C0         376.2846  -291.7569  -261.7342 C0            1 RES     
   11496 C0         374.8535  -292.3171  -261.5951 C0            1 RES     
   11497 C0         373.8868  -291.3962  -260.8471 C0            1 RES     
   11498 C0         374.2395  -291.2663  -259.3638 C0            1 RES     
   11499 H6         379.9336  -293.8871  -265.9625 H6            1 RES     
   11500 H6         381.6055  -294.0436  -266.4613 H6            1 RES     
   11501 H6         382.2854  -292.2531  -265.1126 H6            1 RES     
   11502 H6         379.6340  -291.7346  -266.6493 H6            1 RES     
   11503 H6         381.2678  -291.9457  -267.3583 H6            1 RES     
   11504 H6         381.9922  -289.7969  -266.2768 H6            1 RES     
   11505 H6         380.3467  -289.6167  -265.5756 H6            1 RES     
   11506 H6         380.4760  -288.2344  -267.5484 H6            1 RES     
   11507 H6         379.2894  -289.5381  -267.7928 H6            1 RES     
   11508 H6         380.6140  -289.1003  -269.8347 H6            1 RES     
   11509 H6         380.8316  -290.7787  -269.2667 H6            1 RES     
   11510 H6         383.0478  -290.2388  -268.3118 H6            1 RES     
   11511 H6         382.9414  -289.8332  -270.0555 H6            1 RES     
   11512 H6         382.6708  -287.8297  -267.7165 H6            1 RES     
   11513 H6         382.5912  -287.3925  -269.4613 H6            1 RES     
   11514 H6         384.7798  -286.9081  -268.3463 H6            1 RES     
   11515 H6         384.9739  -288.6540  -267.9503 H6            1 RES     
   11516 H6         385.0511  -289.1619  -270.4513 H6            1 RES     
   11517 H6         384.7565  -287.4149  -270.7791 H6            1 RES     
   11518 H6         386.9212  -286.8254  -269.6776 H6            1 RES     
   11519 H6         387.1125  -287.9275  -271.0875 H6            1 RES     
   11520 H6         387.2169  -288.7991  -268.1265 H6            1 RES     
   11521 H6         387.3485  -289.8905  -269.5659 H6            1 RES     
   11522 H6         388.5981  -288.6263  -269.2570 H6            1 RES     
   11523 H6         380.9890  -290.7604  -263.7717 H6            1 RES     
   11524 H6         381.0658  -292.3291  -263.0409 H6            1 RES     
   11525 H6         378.7279  -290.6512  -263.5520 H6            1 RES     
   11526 H6         378.5400  -292.0790  -264.6309 H6            1 RES     
   11527 H6         379.0851  -292.1382  -261.5554 H6            1 RES     
   11528 H6         379.0763  -293.4844  -262.6846 H6            1 RES     
   11529 H6         376.7563  -293.2213  -263.2635 H6            1 RES     
   11530 H6         377.1131  -293.7065  -261.5938 H6            1 RES     
   11531 H6         376.7048  -291.4936  -260.7404 H6            1 RES     
   11532 H6         376.2840  -290.8549  -262.3820 H6            1 RES     
   11533 H6         374.4554  -292.5002  -262.6190 H6            1 RES     
   11534 H6         374.8681  -293.2946  -261.0613 H6            1 RES     
   11535 H6         372.8730  -291.8499  -260.9079 H6            1 RES     
   11536 H6         373.8544  -290.3972  -261.3305 H6            1 RES     
   11537 H6         375.2261  -290.7828  -259.2214 H6            1 RES     
   11538 H6         373.4734  -290.6478  -258.8537 H6            1 RES     
   11539 H6         374.2549  -292.2708  -258.8849 H6            1 RES     
   11540 C0         381.0863  -296.4881  -265.6163 C0            1 RES     
   11541 C0         380.5310  -296.6008  -267.1080 C0            1 RES     
   11542 C0         380.2327  -298.1181  -267.3554 C0            1 RES     
   11543 C0         379.9374  -298.5094  -268.8175 C0            1 RES     
   11544 C0         379.6268  -300.0042  -269.0104 C0            1 RES     
   11545 C0         380.7435  -300.9783  -268.5943 C0            1 RES     
   11546 C0         382.1159  -300.7110  -269.2344 C0            1 RES     
   11547 C0         382.0872  -300.7254  -270.7729 C0            1 RES     
   11548 C0         383.4652  -300.4518  -271.3969 C0            1 RES     
   11549 C0         384.4818  -301.5737  -271.1194 C0            1 RES     
   11550 C0         385.8200  -301.3640  -271.8450 C0            1 RES     
   11551 C0         386.5875  -300.1369  -271.3528 C0            1 RES     
   11552 C0         379.3983  -295.6845  -267.7361 C0            1 RES     
   11553 C0         377.9207  -295.7575  -267.2575 C0            1 RES     
   11554 C0         377.5182  -294.5374  -266.4098 C0            1 RES     
   11555 C0         376.1102  -294.5402  -265.8376 C0            1 RES     
   11556 C0         374.9675  -294.2990  -266.8139 C0            1 RES     
   11557 C0         373.6776  -294.1744  -265.9776 C0            1 RES     
   11558 C0         372.4374  -293.7754  -266.7795 C0            1 RES     
   11559 C0         372.5277  -292.3461  -267.3160 C0            1 RES     
   11560 H6         380.6460  -297.3131  -265.0092 H6            1 RES     
   11561 H6         382.1418  -296.8347  -265.6921 H6            1 RES     
   11562 H6         381.4106  -296.3302  -267.7365 H6            1 RES     
   11563 H6         379.3698  -298.4257  -266.7260 H6            1 RES     
   11564 H6         381.1213  -298.6969  -267.0233 H6            1 RES     
   11565 H6         380.7932  -298.2092  -269.4579 H6            1 RES     
   11566 H6         379.0290  -297.9898  -269.1790 H6            1 RES     
   11567 H6         379.3911  -300.1645  -270.0841 H6            1 RES     
   11568 H6         378.7091  -300.2639  -268.4381 H6            1 RES     
   11569 H6         380.4127  -302.0071  -268.8562 H6            1 RES     
   11570 H6         380.8658  -300.9456  -267.4906 H6            1 RES     
   11571 H6         382.5042  -299.7305  -268.8850 H6            1 RES     
   11572 H6         382.8005  -301.4992  -268.8599 H6            1 RES     
   11573 H6         381.4103  -299.9200  -271.1269 H6            1 RES     
   11574 H6         381.6940  -301.6974  -271.1419 H6            1 RES     
   11575 H6         383.3266  -300.3743  -272.4973 H6            1 RES     
   11576 H6         383.8399  -299.4749  -271.0239 H6            1 RES     
   11577 H6         384.6800  -301.6715  -270.0322 H6            1 RES     
   11578 H6         384.0478  -302.5304  -271.4836 H6            1 RES     
   11579 H6         385.6461  -301.2816  -272.9399 H6            1 RES     
   11580 H6         386.4536  -302.2585  -271.6618 H6            1 RES     
   11581 H6         386.0275  -299.2021  -271.5568 H6            1 RES     
   11582 H6         386.7844  -300.2191  -270.2626 H6            1 RES     
   11583 H6         387.5601  -300.0755  -271.8848 H6            1 RES     
   11584 H6         379.3727  -295.9664  -268.8047 H6            1 RES     
   11585 H6         379.7173  -294.6355  -267.8831 H6            1 RES     
   11586 H6         377.2702  -295.6932  -268.1575 H6            1 RES     
   11587 H6         377.7107  -296.7283  -266.7645 H6            1 RES     
   11588 H6         377.6926  -293.5974  -266.9811 H6            1 RES     
   11589 H6         378.1252  -294.4992  -265.5122 H6            1 RES     
   11590 H6         375.9450  -295.4656  -265.2441 H6            1 RES     
   11591 H6         376.0790  -293.6681  -265.1638 H6            1 RES     
   11592 H6         375.1767  -293.3507  -267.3526 H6            1 RES     
   11593 H6         374.8853  -295.1271  -267.5484 H6            1 RES     
   11594 H6         373.4882  -295.1552  -265.4884 H6            1 RES     
   11595 H6         373.8117  -293.4171  -265.1710 H6            1 RES     
   11596 H6         371.5684  -293.8169  -266.0866 H6            1 RES     
   11597 H6         372.2682  -294.4955  -267.6045 H6            1 RES     
   11598 H6         373.3522  -292.2395  -268.0486 H6            1 RES     
   11599 H6         371.5765  -292.0846  -267.8234 H6            1 RES     
   11600 H6         372.6882  -291.6304  -266.4800 H6            1 RES     
   11601 C0         393.9275  -293.7316  -263.0408 C0            1 RES     
   11602 C1         392.5220  -294.0055  -262.4618 C1            1 RES     
   11603 C1         392.5720  -294.5511  -261.2188 C1            1 RES     
   11604 S2         391.0675  -294.9458  -260.5996 S2            1 RES     
   11605 C1         390.2767  -294.4319  -262.0144 C1            1 RES     
   11606 C1         391.2053  -293.9627  -262.9499 C1            1 RES     
   11607 C1         393.9240  -294.7292  -260.8541 C1            1 RES     
   11608 C1         394.7204  -294.3577  -261.8927 C1            1 RES     
   11609 C1         396.0607  -294.6403  -261.6580 C1            1 RES     
   11610 C1         396.2312  -295.2055  -260.3829 C1            1 RES     
   11611 S2         394.7533  -295.3715  -259.5633 S2            1 RES     
   11612 H3         390.9070  -293.6644  -263.9370 H3            1 RES     
   11613 H3         396.8606  -294.4544  -262.3647 H3            1 RES     
   11614 N4         399.2345  -295.6490  -258.1843 N4            1 RES     
   11615 C1         398.0908  -295.1248  -258.7148 C1            1 RES     
   11616 C1         397.4777  -295.7227  -259.8295 C1            1 RES     
   11617 C1         398.0582  -296.8759  -260.3605 C1            1 RES     
   11618 N4         397.5371  -297.5820  -261.3965 N4            1 RES     
   11619 S2         398.5963  -298.8438  -261.5288 S2            1 RES     
   11620 N4         399.7060  -298.5550  -260.3356 N4            1 RES     
   11621 C1         399.2348  -297.4117  -259.7792 C1            1 RES     
   11622 C1         399.8208  -296.7696  -258.6915 C1            1 RES     
   11623 H5         397.6595  -294.2310  -258.2723 H5            1 RES     
   11624 C0         394.4126  -292.2512  -263.2299 C0            1 RES     
   11625 C0         394.8295  -291.1708  -262.1618 C0            1 RES     
   11626 C0         395.0868  -289.8600  -262.9852 C0            1 RES     
   11627 C0         395.5850  -288.6380  -262.2036 C0            1 RES     
   11628 C0         395.7544  -287.3934  -263.1065 C0            1 RES     
   11629 C0         396.7993  -287.5195  -264.2370 C0            1 RES     
   11630 C0         398.2109  -287.9196  -263.7728 C0            1 RES     
   11631 C0         398.8026  -286.9483  -262.7359 C0            1 RES     
   11632 C0         400.1876  -287.3801  -262.2328 C0            1 RES     
   11633 C0         401.2744  -287.3131  -263.3191 C0            1 RES     
   11634 C0         402.6759  -287.6364  -262.7772 C0            1 RES     
   11635 C0         402.8178  -289.0815  -262.2977 C0            1 RES     
   11636 C0         393.9108  -290.9146  -260.9226 C0            1 RES     
   11637 C0         392.4807  -290.3316  -261.1412 C0            1 RES     
   11638 C0         391.4521  -291.3165  -260.5772 C0            1 RES     
   11639 C0         389.9882  -291.1225  -260.9619 C0            1 RES     
   11640 C0         389.2238  -290.0510  -260.1981 C0            1 RES     
   11641 C0         387.7676  -290.0587  -260.7085 C0            1 RES     
   11642 C0         386.8151  -289.1677  -259.9079 C0            1 RES     
   11643 C0         386.5768  -289.6975  -258.4923 C0            1 RES     
   11644 H6         393.6685  -291.7660  -263.8085 H6            1 RES     
   11645 H6         395.3221  -292.3413  -263.8658 H6            1 RES     
   11646 H6         395.7965  -291.5100  -261.7279 H6            1 RES     
   11647 H6         394.1475  -289.5594  -263.4988 H6            1 RES     
   11648 H6         395.8374  -290.0952  -263.7699 H6            1 RES     
   11649 H6         396.5358  -288.8783  -261.6859 H6            1 RES     
   11650 H6         394.8316  -288.3622  -261.4384 H6            1 RES     
   11651 H6         396.0274  -286.5334  -262.4606 H6            1 RES     
   11652 H6         394.7751  -287.1403  -263.5700 H6            1 RES     
   11653 H6         396.8558  -286.5415  -264.7648 H6            1 RES     
   11654 H6         396.4554  -288.2674  -264.9830 H6            1 RES     
   11655 H6         398.1787  -288.9431  -263.3434 H6            1 RES     
   11656 H6         398.8578  -287.9508  -264.6740 H6            1 RES     
   11657 H6         398.1424  -286.9298  -261.8450 H6            1 RES     
   11658 H6         398.8528  -285.9196  -263.1553 H6            1 RES     
   11659 H6         400.4764  -286.6885  -261.4115 H6            1 RES     
   11660 H6         400.1075  -288.4048  -261.8129 H6            1 RES     
   11661 H6         401.0452  -288.0070  -264.1542 H6            1 RES     
   11662 H6         401.2979  -286.2766  -263.7205 H6            1 RES     
   11663 H6         402.9288  -286.9412  -261.9471 H6            1 RES     
   11664 H6         403.4086  -287.4759  -263.5972 H6            1 RES     
   11665 H6         402.1469  -289.2909  -261.4403 H6            1 RES     
   11666 H6         402.5873  -289.7843  -263.1264 H6            1 RES     
   11667 H6         403.8618  -289.2567  -261.9634 H6            1 RES     
   11668 H6         394.4438  -290.2093  -260.2497 H6            1 RES     
   11669 H6         393.8781  -291.8452  -260.3164 H6            1 RES     
   11670 H6         392.3633  -289.3625  -260.6063 H6            1 RES     
   11671 H6         392.3025  -290.1540  -262.2212 H6            1 RES     
   11672 H6         391.5693  -291.4682  -259.4835 H6            1 RES     
   11673 H6         391.7063  -292.2375  -261.0573 H6            1 RES     
   11674 H6         389.9206  -290.9601  -262.0404 H6            1 RES     
   11675 H6         389.4765  -292.0873  -260.7431 H6            1 RES     
   11676 H6         389.2674  -290.3212  -259.1218 H6            1 RES     
   11677 H6         389.6773  -289.0477  -260.3424 H6            1 RES     
   11678 H6         387.7733  -289.7171  -261.7685 H6            1 RES     
   11679 H6         387.3546  -291.0930  -260.6919 H6            1 RES     
   11680 H6         385.8334  -289.1672  -260.4309 H6            1 RES     
   11681 H6         387.1972  -288.1257  -259.8764 H6            1 RES     
   11682 H6         387.5087  -289.6905  -257.8934 H6            1 RES     
   11683 H6         385.8297  -289.0590  -257.9788 H6            1 RES     
   11684 H6         386.1801  -290.7365  -258.5346 H6            1 RES     
   11685 C0         393.9855  -294.5550  -264.3878 C0            1 RES     
   11686 C0         394.0500  -293.9331  -265.8559 C0            1 RES     
   11687 C0         393.5447  -295.0490  -266.8315 C0            1 RES     
   11688 C0         393.7681  -294.7733  -268.3322 C0            1 RES     
   11689 C0         393.2353  -295.8841  -269.2543 C0            1 RES     
   11690 C0         393.8531  -297.2785  -269.0474 C0            1 RES     
   11691 C0         395.3887  -297.3291  -269.1120 C0            1 RES     
   11692 C0         395.9635  -296.7991  -270.4374 C0            1 RES     
   11693 C0         397.4992  -296.8518  -270.4840 C0            1 RES     
   11694 C0         398.0493  -298.2893  -270.4883 C0            1 RES     
   11695 C0         399.5751  -298.3476  -270.6608 C0            1 RES     
   11696 C0         400.3390  -297.7389  -269.4848 C0            1 RES     
   11697 C0         393.4884  -292.5094  -266.2738 C0            1 RES     
   11698 C0         391.9652  -292.1966  -266.2866 C0            1 RES     
   11699 C0         391.5437  -291.2883  -265.1177 C0            1 RES     
   11700 C0         390.0616  -290.9727  -265.0006 C0            1 RES     
   11701 C0         389.4780  -290.0082  -266.0234 C0            1 RES     
   11702 C0         388.0259  -289.7171  -265.5926 C0            1 RES     
   11703 C0         387.3218  -288.6409  -266.4210 C0            1 RES     
   11704 C0         387.9296  -287.2537  -266.2079 C0            1 RES     
   11705 H6         393.1714  -295.3162  -264.3591 H6            1 RES     
   11706 H6         394.8807  -295.2149  -264.3323 H6            1 RES     
   11707 H6         395.1419  -293.8043  -266.0385 H6            1 RES     
   11708 H6         392.4592  -295.2162  -266.6606 H6            1 RES     
   11709 H6         394.0794  -295.9893  -266.5771 H6            1 RES     
   11710 H6         394.8498  -294.6061  -268.5177 H6            1 RES     
   11711 H6         393.2140  -293.8667  -268.6435 H6            1 RES     
   11712 H6         393.4106  -295.5649  -270.3039 H6            1 RES     
   11713 H6         392.1339  -295.9700  -269.1248 H6            1 RES     
   11714 H6         393.4326  -297.9555  -269.8229 H6            1 RES     
   11715 H6         393.5365  -297.6767  -268.0598 H6            1 RES     
   11716 H6         395.8155  -296.7451  -268.2688 H6            1 RES     
   11717 H6         395.6782  -298.3903  -268.9698 H6            1 RES     
   11718 H6         395.6766  -295.7330  -270.5523 H6            1 RES     
   11719 H6         395.5420  -297.3671  -271.2948 H6            1 RES     
   11720 H6         397.8244  -296.3536  -271.4232 H6            1 RES     
   11721 H6         397.9038  -296.2742  -269.6258 H6            1 RES     
   11722 H6         397.7780  -298.8223  -269.5539 H6            1 RES     
   11723 H6         397.5927  -298.8309  -271.3454 H6            1 RES     
   11724 H6         399.8677  -297.8342  -271.6024 H6            1 RES     
   11725 H6         399.8707  -299.4158  -270.7432 H6            1 RES     
   11726 H6         400.1262  -296.6557  -269.3827 H6            1 RES     
   11727 H6         400.0688  -298.2590  -268.5411 H6            1 RES     
   11728 H6         401.4296  -297.8582  -269.6553 H6            1 RES     
   11729 H6         393.8223  -292.3741  -267.3189 H6            1 RES     
   11730 H6         394.0633  -291.6693  -265.8409 H6            1 RES     
   11731 H6         391.7520  -291.5916  -267.1953 H6            1 RES     
   11732 H6         391.3694  -293.1288  -266.3607 H6            1 RES     
   11733 H6         392.1317  -290.3426  -265.1336 H6            1 RES     
   11734 H6         391.7419  -291.7880  -264.1761 H6            1 RES     
   11735 H6         389.4762  -291.9168  -264.9567 H6            1 RES     
   11736 H6         389.9626  -290.4409  -264.0400 H6            1 RES     
   11737 H6         390.0862  -289.0794  -265.9987 H6            1 RES     
   11738 H6         389.5094  -290.4394  -267.0457 H6            1 RES     
   11739 H6         387.4476  -290.6641  -265.6691 H6            1 RES     
   11740 H6         387.9969  -289.3909  -264.5274 H6            1 RES     
   11741 H6         386.2650  -288.5978  -266.0771 H6            1 RES     
   11742 H6         387.3350  -288.9156  -267.4943 H6            1 RES     
   11743 H6         388.9767  -287.2103  -266.5679 H6            1 RES     
   11744 H6         387.3375  -286.5039  -266.7717 H6            1 RES     
   11745 H6         387.9035  -286.9833  -265.1295 H6            1 RES     
   11746 C0         405.0492  -297.7687  -257.5766 C0            1 RES     
   11747 C1         403.5066  -297.6906  -257.5758 C1            1 RES     
   11748 C1         402.9427  -298.6100  -256.7500 C1            1 RES     
   11749 S2         401.2692  -298.6139  -256.7955 S2            1 RES     
   11750 C1         401.2322  -297.3911  -257.9763 C1            1 RES     
   11751 C1         402.5322  -297.0025  -258.3178 C1            1 RES     
   11752 C1         403.9671  -299.3853  -256.1650 C1            1 RES     
   11753 C1         405.1679  -298.9971  -256.6732 C1            1 RES     
   11754 C1         406.2097  -299.8134  -256.2494 C1            1 RES     
   11755 C1         405.7364  -300.8049  -255.3736 C1            1 RES     
   11756 S2         404.0587  -300.6903  -255.1378 S2            1 RES     
   11757 H3         402.7193  -296.2942  -259.1025 H3            1 RES     
   11758 H3         407.2423  -299.7015  -256.5578 H3            1 RES     
   11759 N4         407.4565  -303.0485  -252.9123 N4            1 RES     
   11760 C1         406.7599  -301.9932  -253.4274 C1            1 RES     
   11761 C1         406.5175  -301.8997  -254.8088 C1            1 RES     
   11762 C1         406.9884  -302.9250  -255.6309 C1            1 RES     
   11763 N4         406.7733  -302.9858  -256.9701 N4            1 RES     
   11764 S2         407.4913  -304.4182  -257.3758 S2            1 RES     
   11765 N4         408.0777  -304.9877  -255.9370 N4            1 RES     
   11766 C1         407.6921  -304.0198  -255.0692 C1            1 RES     
   11767 C1         407.9307  -304.0559  -253.6978 C1            1 RES     
   11768 H5         406.3992  -301.2162  -252.7591 H5            1 RES     
   11769 C0         405.8845  -296.6022  -256.9407 C0            1 RES     
   11770 C0         406.0769  -296.1909  -255.4322 C0            1 RES     
   11771 C0         406.9202  -294.8682  -255.4734 C0            1 RES     
   11772 C0         407.3290  -294.2653  -254.1237 C0            1 RES     
   11773 C0         408.1102  -292.9400  -254.2858 C0            1 RES     
   11774 C0         409.4587  -293.0410  -255.0323 C0            1 RES     
   11775 C0         410.4480  -294.0642  -254.4473 C0            1 RES     
   11776 C0         410.7846  -293.8005  -252.9688 C0            1 RES     
   11777 C0         411.7279  -294.8548  -252.3720 C0            1 RES     
   11778 C0         413.1392  -294.8195  -252.9825 C0            1 RES     
   11779 C0         414.1061  -295.7996  -252.2992 C0            1 RES     
   11780 C0         413.7245  -297.2657  -252.5071 C0            1 RES     
   11781 C0         404.8273  -296.0615  -254.5011 C0            1 RES     
   11782 C0         403.7656  -294.9584  -254.7988 C0            1 RES     
   11783 C0         402.4079  -295.6274  -255.0335 C0            1 RES     
   11784 C0         401.2949  -294.7904  -255.6577 C0            1 RES     
   11785 C0         400.5503  -293.8489  -254.7225 C0            1 RES     
   11786 C0         399.4488  -293.1456  -255.5431 C0            1 RES     
   11787 C0         398.4817  -292.3038  -254.7075 C0            1 RES     
   11788 C0         397.5962  -293.1636  -253.8031 C0            1 RES     
   11789 H6         405.5547  -295.7105  -257.4096 H6            1 RES     
   11790 H6         406.9260  -296.7934  -257.2849 H6            1 RES     
   11791 H6         406.6948  -296.9883  -254.9621 H6            1 RES     
   11792 H6         406.3497  -294.0869  -256.0217 H6            1 RES     
   11793 H6         407.8460  -295.0751  -256.0518 H6            1 RES     
   11794 H6         407.9214  -295.0002  -253.5418 H6            1 RES     
   11795 H6         406.4172  -294.0157  -253.5444 H6            1 RES     
   11796 H6         408.2910  -292.5205  -253.2746 H6            1 RES     
   11797 H6         407.4739  -292.2024  -254.8233 H6            1 RES     
   11798 H6         409.9329  -292.0342  -255.0249 H6            1 RES     
   11799 H6         409.2787  -293.3031  -256.0968 H6            1 RES     
   11800 H6         410.0241  -295.0851  -254.5528 H6            1 RES     
   11801 H6         411.3722  -294.0166  -255.0599 H6            1 RES     
   11802 H6         409.8497  -293.8506  -252.3743 H6            1 RES     
   11803 H6         411.2219  -292.7852  -252.8477 H6            1 RES     
   11804 H6         411.8168  -294.6472  -251.2833 H6            1 RES     
   11805 H6         411.2647  -295.8558  -252.4988 H6            1 RES     
   11806 H6         413.1085  -295.0462  -254.0684 H6            1 RES     
   11807 H6         413.5474  -293.7939  -252.8496 H6            1 RES     
   11808 H6         414.1602  -295.5788  -251.2108 H6            1 RES     
   11809 H6         415.1176  -295.6459  -252.7333 H6            1 RES     
   11810 H6         412.7427  -297.4973  -252.0470 H6            1 RES     
   11811 H6         413.6882  -297.5018  -253.5918 H6            1 RES     
   11812 H6         414.4865  -297.9151  -252.0275 H6            1 RES     
   11813 H6         405.1954  -295.8801  -253.4686 H6            1 RES     
   11814 H6         404.3541  -297.0630  -254.4140 H6            1 RES     
   11815 H6         403.6656  -294.2631  -253.9353 H6            1 RES     
   11816 H6         404.0697  -294.3663  -255.6858 H6            1 RES     
   11817 H6         402.0497  -296.1795  -254.1392 H6            1 RES     
   11818 H6         402.6191  -296.3501  -255.7928 H6            1 RES     
   11819 H6         401.6937  -294.2525  -256.5212 H6            1 RES     
   11820 H6         400.5385  -295.5120  -256.0420 H6            1 RES     
   11821 H6         400.1069  -294.4704  -253.9158 H6            1 RES     
   11822 H6         401.2340  -293.0984  -254.2726 H6            1 RES     
   11823 H6         399.9455  -292.4861  -256.2904 H6            1 RES     
   11824 H6         398.8444  -293.8935  -256.1052 H6            1 RES     
   11825 H6         397.8107  -291.7628  -255.4105 H6            1 RES     
   11826 H6         399.0413  -291.5545  -254.1090 H6            1 RES     
   11827 H6         398.1947  -293.7061  -253.0449 H6            1 RES     
   11828 H6         396.8692  -292.5159  -253.2725 H6            1 RES     
   11829 H6         397.0283  -293.9012  -254.4132 H6            1 RES     
   11830 C0         405.4471  -298.0355  -259.0820 C0            1 RES     
   11831 C0         406.2186  -297.0143  -260.0350 C0            1 RES     
   11832 C0         405.9030  -297.4558  -261.5040 C0            1 RES     
   11833 C0         406.7523  -296.7807  -262.5998 C0            1 RES     
   11834 C0         406.3924  -297.2262  -264.0281 C0            1 RES     
   11835 C0         406.5539  -298.7287  -264.3204 C0            1 RES     
   11836 C0         407.9388  -299.3126  -263.9956 C0            1 RES     
   11837 C0         409.0895  -298.6071  -264.7347 C0            1 RES     
   11838 C0         410.4670  -299.1991  -264.3953 C0            1 RES     
   11839 C0         410.6413  -300.6409  -264.9051 C0            1 RES     
   11840 C0         412.0582  -301.1906  -264.6782 C0            1 RES     
   11841 C0         412.4135  -301.3513  -263.2000 C0            1 RES     
   11842 C0         406.1966  -295.4342  -259.8945 C0            1 RES     
   11843 C0         404.9112  -294.6016  -260.1635 C0            1 RES     
   11844 C0         404.2774  -294.0666  -258.8668 C0            1 RES     
   11845 C0         402.9783  -293.2916  -259.0130 C0            1 RES     
   11846 C0         403.0723  -291.8909  -259.6016 C0            1 RES     
   11847 C0         401.6715  -291.2564  -259.4837 C0            1 RES     
   11848 C0         401.6064  -289.7823  -259.8875 C0            1 RES     
   11849 C0         402.3727  -288.8804  -258.9189 C0            1 RES     
   11850 H6         404.5405  -298.4048  -259.6155 H6            1 RES     
   11851 H6         406.0783  -298.9527  -259.0984 H6            1 RES     
   11852 H6         407.2935  -297.2400  -259.8459 H6            1 RES     
   11853 H6         404.8299  -297.2617  -261.7187 H6            1 RES     
   11854 H6         406.0722  -298.5520  -261.5723 H6            1 RES     
   11855 H6         407.8279  -296.9684  -262.3985 H6            1 RES     
   11856 H6         406.5808  -295.6868  -262.6003 H6            1 RES     
   11857 H6         407.0315  -296.6518  -264.7323 H6            1 RES     
   11858 H6         405.3394  -296.9417  -264.2455 H6            1 RES     
   11859 H6         406.3328  -298.8912  -265.3981 H6            1 RES     
   11860 H6         405.7955  -299.2981  -263.7419 H6            1 RES     
   11861 H6         408.1184  -299.2560  -262.9007 H6            1 RES     
   11862 H6         407.9064  -300.3845  -264.2785 H6            1 RES     
   11863 H6         409.1146  -297.5413  -264.4256 H6            1 RES     
   11864 H6         408.9237  -298.6469  -265.8331 H6            1 RES     
   11865 H6         411.2363  -298.5631  -264.8852 H6            1 RES     
   11866 H6         410.6195  -299.1451  -263.2964 H6            1 RES     
   11867 H6         409.9144  -301.3251  -264.4209 H6            1 RES     
   11868 H6         410.4501  -300.6452  -266.0004 H6            1 RES     
   11869 H6         412.8026  -300.5287  -265.1717 H6            1 RES     
   11870 H6         412.1178  -302.1932  -265.1541 H6            1 RES     
   11871 H6         412.4235  -300.3729  -262.6787 H6            1 RES     
   11872 H6         411.6869  -302.0279  -262.7018 H6            1 RES     
   11873 H6         413.4277  -301.7949  -263.1132 H6            1 RES     
   11874 H6         406.9348  -295.0783  -260.6365 H6            1 RES     
   11875 H6         406.7260  -295.0688  -258.9946 H6            1 RES     
   11876 H6         405.2114  -293.6866  -260.7202 H6            1 RES     
   11877 H6         404.2018  -295.1629  -260.8047 H6            1 RES     
   11878 H6         405.0181  -293.4597  -258.2983 H6            1 RES     
   11879 H6         403.9741  -294.8965  -258.2383 H6            1 RES     
   11880 H6         402.2293  -293.9078  -259.5563 H6            1 RES     
   11881 H6         402.6308  -293.1280  -257.9796 H6            1 RES     
   11882 H6         403.8114  -291.3199  -259.0008 H6            1 RES     
   11883 H6         403.4059  -291.9214  -260.6598 H6            1 RES     
   11884 H6         400.9754  -291.8362  -260.1291 H6            1 RES     
   11885 H6         401.2999  -291.3323  -258.4358 H6            1 RES     
   11886 H6         400.5375  -289.4769  -259.8523 H6            1 RES     
   11887 H6         401.9784  -289.6534  -260.9233 H6            1 RES     
   11888 H6         403.4583  -289.1021  -258.9313 H6            1 RES     
   11889 H6         402.2314  -287.8208  -259.2155 H6            1 RES     
   11890 H6         401.9861  -289.0101  -257.8842 H6            1 RES     
   11891 C0         411.9394  -307.2200  -251.8279 C0            1 RES     
   11892 C1         410.5793  -306.5877  -252.1965 C1            1 RES     
   11893 C1         409.5481  -307.4608  -252.0566 C1            1 RES     
   11894 S2         408.0712  -306.8353  -252.5361 S2            1 RES     
   11895 C1         408.7724  -305.3572  -252.9991 C1            1 RES     
   11896 C1         410.1530  -305.3797  -252.7734 C1            1 RES     
   11897 C1         410.0613  -308.7081  -251.6399 C1            1 RES     
   11898 C1         411.4187  -308.6370  -251.5825 C1            1 RES     
   11899 C1         412.0016  -309.8703  -251.3172 C1            1 RES     
   11900 C1         411.0157  -310.8563  -251.1435 C1            1 RES     
   11901 S2         409.4509  -310.2241  -251.3308 S2            1 RES     
   11902 H3         410.7849  -304.5651  -253.0726 H3            1 RES     
   11903 H3         413.0692  -310.0453  -251.2586 H3            1 RES     
   11904 N4         411.0886  -314.2755  -249.6094 N4            1 RES     
   11905 C1         410.9025  -312.9307  -249.7538 C1            1 RES     
   11906 C1         411.2489  -312.2834  -250.9525 C1            1 RES     
   11907 C1         411.7647  -313.0575  -251.9935 C1            1 RES     
   11908 N4         412.0847  -312.5681  -253.2189 N4            1 RES     
   11909 S2         412.5675  -313.9282  -254.0244 S2            1 RES     
   11910 N4         412.4003  -315.1325  -252.9018 N4            1 RES     
   11911 C1         411.9299  -314.4552  -251.8254 C1            1 RES     
   11912 C1         411.5969  -315.0479  -250.6103 C1            1 RES     
   11913 H5         410.4905  -312.3583  -248.9272 H5            1 RES     
   11914 C0         412.6940  -306.7381  -250.5390 C0            1 RES     
   11915 C0         412.3650  -306.9750  -249.0166 C0            1 RES     
   11916 C0         413.4270  -306.1270  -248.2322 C0            1 RES     
   11917 C0         413.3960  -306.2226  -246.7018 C0            1 RES     
   11918 C0         414.4505  -305.3080  -246.0354 C0            1 RES     
   11919 C0         415.9249  -305.6311  -246.3635 C0            1 RES     
   11920 C0         416.3519  -307.0798  -246.0682 C0            1 RES     
   11921 C0         416.1307  -307.4864  -244.6005 C0            1 RES     
   11922 C0         416.5051  -308.9491  -244.3213 C0            1 RES     
   11923 C0         418.0123  -309.2246  -244.4554 C0            1 RES     
   11924 C0         418.3902  -310.6618  -244.0628 C0            1 RES     
   11925 C0         417.8063  -311.7166  -245.0034 C0            1 RES     
   11926 C0         410.9128  -306.7273  -248.4923 C0            1 RES     
   11927 C0         410.3262  -305.2825  -248.5256 C0            1 RES     
   11928 C0         409.0580  -305.2818  -249.3845 C0            1 RES     
   11929 C0         408.4947  -303.9353  -249.8298 C0            1 RES     
   11930 C0         407.6716  -303.1725  -248.8021 C0            1 RES     
   11931 C0         407.1661  -301.8777  -249.4723 C0            1 RES     
   11932 C0         406.1614  -301.0851  -248.6329 C0            1 RES     
   11933 C0         404.8255  -301.8161  -248.4834 C0            1 RES     
   11934 H6         412.7812  -305.6849  -250.6217 H6            1 RES     
   11935 H6         413.7165  -307.1659  -250.6457 H6            1 RES     
   11936 H6         412.5555  -308.0527  -248.8146 H6            1 RES     
   11937 H6         413.3059  -305.0535  -248.4956 H6            1 RES     
   11938 H6         414.4346  -306.4449  -248.5758 H6            1 RES     
   11939 H6         413.5337  -307.2758  -246.3828 H6            1 RES     
   11940 H6         412.4100  -305.8733  -246.3342 H6            1 RES     
   11941 H6         414.3082  -305.3614  -244.9362 H6            1 RES     
   11942 H6         414.2569  -304.2518  -246.3267 H6            1 RES     
   11943 H6         416.5684  -304.9377  -245.7773 H6            1 RES     
   11944 H6         416.1238  -305.4235  -247.4366 H6            1 RES     
   11945 H6         415.7887  -307.7698  -246.7313 H6            1 RES     
   11946 H6         417.4279  -307.1654  -246.3264 H6            1 RES     
   11947 H6         415.0517  -307.3928  -244.3617 H6            1 RES     
   11948 H6         416.6985  -306.8114  -243.9232 H6            1 RES     
   11949 H6         416.2032  -309.1788  -243.2762 H6            1 RES     
   11950 H6         415.9195  -309.6003  -245.0037 H6            1 RES     
   11951 H6         418.3608  -309.0338  -245.4916 H6            1 RES     
   11952 H6         418.5518  -308.5342  -243.7710 H6            1 RES     
   11953 H6         418.0604  -310.8671  -243.0210 H6            1 RES     
   11954 H6         419.4976  -310.7494  -244.0978 H6            1 RES     
   11955 H6         416.6980  -311.7160  -244.9736 H6            1 RES     
   11956 H6         418.1472  -311.5322  -246.0443 H6            1 RES     
   11957 H6         418.1545  -312.7226  -244.6885 H6            1 RES     
   11958 H6         410.8765  -307.0625  -247.4337 H6            1 RES     
   11959 H6         410.2343  -307.4492  -248.9953 H6            1 RES     
   11960 H6         410.0521  -304.9438  -247.5013 H6            1 RES     
   11961 H6         411.0768  -304.5757  -248.9339 H6            1 RES     
   11962 H6         408.2650  -305.9368  -248.9660 H6            1 RES     
   11963 H6         409.3843  -305.7210  -250.3032 H6            1 RES     
   11964 H6         409.3088  -303.3181  -250.2179 H6            1 RES     
   11965 H6         407.8104  -304.1486  -250.6823 H6            1 RES     
   11966 H6         406.8217  -303.8259  -248.5120 H6            1 RES     
   11967 H6         408.2718  -302.9302  -247.8997 H6            1 RES     
   11968 H6         408.0489  -301.2315  -249.6806 H6            1 RES     
   11969 H6         406.6814  -302.1080  -250.4484 H6            1 RES     
   11970 H6         405.9581  -300.1289  -249.1635 H6            1 RES     
   11971 H6         406.5922  -300.8498  -247.6370 H6            1 RES     
   11972 H6         404.9422  -302.7661  -247.9256 H6            1 RES     
   11973 H6         404.1118  -301.1737  -247.9288 H6            1 RES     
   11974 H6         404.3946  -302.0343  -249.4861 H6            1 RES     
   11975 C0         412.8262  -307.0757  -253.1273 C0            1 RES     
   11976 C0         414.1150  -306.1467  -253.2752 C0            1 RES     
   11977 C0         414.3119  -305.9046  -254.8098 C0            1 RES     
   11978 C0         415.6497  -305.2536  -255.2155 C0            1 RES     
   11979 C0         415.7901  -305.0128  -256.7289 C0            1 RES     
   11980 C0         415.7161  -306.2688  -257.6155 C0            1 RES     
   11981 C0         416.6956  -307.3929  -257.2395 C0            1 RES     
   11982 C0         418.1692  -306.9495  -257.2484 C0            1 RES     
   11983 C0         419.1346  -308.0829  -256.8655 C0            1 RES     
   11984 C0         419.1708  -309.2160  -257.9066 C0            1 RES     
   11985 C0         420.2248  -310.2884  -257.5902 C0            1 RES     
   11986 C0         419.9264  -311.0684  -256.3098 C0            1 RES     
   11987 C0         414.3904  -304.8223  -252.4464 C0            1 RES     
   11988 C0         413.5329  -303.5391  -252.6362 C0            1 RES     
   11989 C0         412.5768  -303.2931  -251.4552 C0            1 RES     
   11990 C0         411.6462  -302.0971  -251.5700 C0            1 RES     
   11991 C0         412.2714  -300.7180  -251.4133 C0            1 RES     
   11992 C0         411.1151  -299.6975  -251.3932 C0            1 RES     
   11993 C0         411.5421  -298.2606  -251.0876 C0            1 RES     
   11994 C0         412.0460  -298.0971  -249.6529 C0            1 RES     
   11995 H6         412.1443  -306.8781  -253.9870 H6            1 RES     
   11996 H6         413.1929  -308.0937  -253.3906 H6            1 RES     
   11997 H6         414.9504  -306.8008  -252.9341 H6            1 RES     
   11998 H6         413.4812  -305.2695  -255.1866 H6            1 RES     
   11999 H6         414.2469  -306.8899  -255.3196 H6            1 RES     
   12000 H6         416.4893  -305.8794  -254.8467 H6            1 RES     
   12001 H6         415.7391  -304.2457  -254.7661 H6            1 RES     
   12002 H6         416.7642  -304.5073  -256.9016 H6            1 RES     
   12003 H6         414.9984  -304.3061  -257.0618 H6            1 RES     
   12004 H6         415.9055  -305.9556  -258.6656 H6            1 RES     
   12005 H6         414.6859  -306.6829  -257.5790 H6            1 RES     
   12006 H6         416.4388  -307.7884  -256.2335 H6            1 RES     
   12007 H6         416.5402  -308.2092  -257.9740 H6            1 RES     
   12008 H6         418.3065  -306.1448  -256.4961 H6            1 RES     
   12009 H6         418.4433  -306.5433  -258.2460 H6            1 RES     
   12010 H6         420.1544  -307.6460  -256.7935 H6            1 RES     
   12011 H6         418.8515  -308.4720  -255.8645 H6            1 RES     
   12012 H6         418.1803  -309.7081  -257.9942 H6            1 RES     
   12013 H6         419.4289  -308.7709  -258.8923 H6            1 RES     
   12014 H6         421.2297  -309.8187  -257.5161 H6            1 RES     
   12015 H6         420.2426  -311.0117  -258.4338 H6            1 RES     
   12016 H6         419.9476  -310.4072  -255.4202 H6            1 RES     
   12017 H6         418.9324  -311.5589  -256.3818 H6            1 RES     
   12018 H6         420.6994  -311.8532  -256.1704 H6            1 RES     
   12019 H6         415.4194  -304.5287  -252.7241 H6            1 RES     
   12020 H6         414.5909  -305.0117  -251.3751 H6            1 RES     
   12021 H6         414.2221  -302.6662  -252.6180 H6            1 RES     
   12022 H6         413.0268  -303.5423  -253.6228 H6            1 RES     
   12023 H6         413.1495  -303.2368  -250.5017 H6            1 RES     
   12024 H6         411.8757  -304.1162  -251.3745 H6            1 RES     
   12025 H6         411.0542  -302.1672  -252.5084 H6            1 RES     
   12026 H6         410.9667  -302.1858  -250.7063 H6            1 RES     
   12027 H6         412.8219  -300.7033  -250.4489 H6            1 RES     
   12028 H6         412.9777  -300.5007  -252.2415 H6            1 RES     
   12029 H6         410.6185  -299.7202  -252.3882 H6            1 RES     
   12030 H6         410.3554  -299.9893  -250.6319 H6            1 RES     
   12031 H6         410.6417  -297.6174  -251.1998 H6            1 RES     
   12032 H6         412.3092  -297.9274  -251.8145 H6            1 RES     
   12033 H6         412.9709  -298.6821  -249.4790 H6            1 RES     
   12034 H6         412.2710  -297.0275  -249.4635 H6            1 RES     
   12035 H6         411.2661  -298.4253  -248.9311 H6            1 RES     
   12036 C0         413.7408  -319.8964  -249.3962 C0            1 RES     
   12037 C1         412.8113  -318.7244  -249.7812 C1            1 RES     
   12038 C1         411.6424  -319.1493  -250.3275 C1            1 RES     
   12039 S2         410.6507  -317.9021  -250.8407 S2            1 RES     
   12040 C1         411.7858  -316.7220  -250.3827 C1            1 RES     
   12041 C1         412.9247  -317.3253  -249.8382 C1            1 RES     
   12042 C1         411.6607  -320.5588  -250.4020 C1            1 RES     
   12043 C1         412.8657  -321.0145  -249.9647 C1            1 RES     
   12044 C1         413.0088  -322.3852  -250.1437 C1            1 RES     
   12045 C1         411.8420  -322.9358  -250.7003 C1            1 RES     
   12046 S2         410.6586  -321.7517  -250.9845 S2            1 RES     
   12047 H3         413.7867  -316.7496  -249.5590 H3            1 RES     
   12048 H3         413.9001  -322.9478  -249.8928 H3            1 RES     
   12049 N4         410.5475  -326.4467  -250.9206 N4            1 RES     
   12050 C1         410.7361  -325.1668  -250.4841 C1            1 RES     
   12051 C1         411.6590  -324.3201  -251.1221 C1            1 RES     
   12052 C1         412.3565  -324.8178  -252.2242 C1            1 RES     
   12053 N4         413.2314  -324.0887  -252.9633 N4            1 RES     
   12054 S2         413.6771  -325.1620  -254.1386 S2            1 RES     
   12055 N4         412.8206  -326.5291  -253.7705 N4            1 RES     
   12056 C1         412.1284  -326.1439  -252.6699 C1            1 RES     
   12057 C1         411.2229  -326.9541  -251.9898 C1            1 RES     
   12058 H5         410.1707  -324.8073  -249.6286 H5            1 RES     
   12059 C0         414.0155  -320.2023  -247.8817 C0            1 RES     
   12060 C0         413.0719  -320.8127  -246.7776 C0            1 RES     
   12061 C0         413.9001  -320.7405  -245.4467 C0            1 RES     
   12062 C0         413.2507  -321.3409  -244.1937 C0            1 RES     
   12063 C0         414.1333  -321.1675  -242.9352 C0            1 RES     
   12064 C0         415.5067  -321.8733  -242.9743 C0            1 RES     
   12065 C0         415.4510  -323.3833  -243.2660 C0            1 RES     
   12066 C0         414.5875  -324.1610  -242.2570 C0            1 RES     
   12067 C0         414.4882  -325.6582  -242.5825 C0            1 RES     
   12068 C0         415.8253  -326.4020  -242.4261 C0            1 RES     
   12069 C0         415.6902  -327.9177  -242.6424 C0            1 RES     
   12070 C0         415.3043  -328.2898  -244.0746 C0            1 RES     
   12071 C0         411.6246  -320.2480  -246.5997 C0            1 RES     
   12072 C0         411.4341  -318.7735  -246.1282 C0            1 RES     
   12073 C0         410.6391  -318.0113  -247.1927 C0            1 RES     
   12074 C0         410.6094  -316.4878  -247.1108 C0            1 RES     
   12075 C0         409.6404  -315.8826  -246.1057 C0            1 RES     
   12076 C0         409.7389  -314.3471  -246.2238 C0            1 RES     
   12077 C0         408.6882  -313.5846  -245.4134 C0            1 RES     
   12078 C0         407.2750  -313.7784  -245.9671 C0            1 RES     
   12079 H6         414.3591  -319.2958  -247.4529 H6            1 RES     
   12080 H6         414.8753  -320.9095  -247.8979 H6            1 RES     
   12081 H6         412.9240  -321.8833  -247.0430 H6            1 RES     
   12082 H6         414.1332  -319.6777  -245.2173 H6            1 RES     
   12083 H6         414.8640  -321.2655  -245.6191 H6            1 RES     
   12084 H6         413.0151  -322.4114  -244.3621 H6            1 RES     
   12085 H6         412.3037  -320.8050  -243.9810 H6            1 RES     
   12086 H6         413.5631  -321.5416  -242.0599 H6            1 RES     
   12087 H6         414.3087  -320.0835  -242.7565 H6            1 RES     
   12088 H6         416.0048  -321.7128  -241.9921 H6            1 RES     
   12089 H6         416.1513  -321.3959  -243.7429 H6            1 RES     
   12090 H6         415.0555  -323.5438  -244.2911 H6            1 RES     
   12091 H6         416.4939  -323.7622  -243.2425 H6            1 RES     
   12092 H6         413.5514  -323.7674  -242.2941 H6            1 RES     
   12093 H6         414.9782  -324.0201  -241.2254 H6            1 RES     
   12094 H6         413.7577  -326.1074  -241.8748 H6            1 RES     
   12095 H6         414.0889  -325.7703  -243.6124 H6            1 RES     
   12096 H6         416.5852  -326.0066  -243.1315 H6            1 RES     
   12097 H6         416.1913  -326.2398  -241.3888 H6            1 RES     
   12098 H6         414.9415  -328.3345  -241.9339 H6            1 RES     
   12099 H6         416.6731  -328.3870  -242.4215 H6            1 RES     
   12100 H6         414.3033  -327.8936  -244.3397 H6            1 RES     
   12101 H6         416.0579  -327.8955  -244.7889 H6            1 RES     
   12102 H6         415.2687  -329.3952  -244.1700 H6            1 RES     
   12103 H6         411.1026  -320.8903  -245.8585 H6            1 RES     
   12104 H6         411.0563  -320.4491  -247.5330 H6            1 RES     
   12105 H6         410.8626  -318.7347  -245.1738 H6            1 RES     
   12106 H6         412.4210  -318.2968  -245.9596 H6            1 RES     
   12107 H6         409.6219  -318.4313  -247.3403 H6            1 RES     
   12108 H6         411.1937  -318.1926  -248.0888 H6            1 RES     
   12109 H6         411.6251  -316.1187  -246.9488 H6            1 RES     
   12110 H6         410.2857  -316.1266  -248.1135 H6            1 RES     
   12111 H6         408.6230  -316.2359  -246.3771 H6            1 RES     
   12112 H6         409.8757  -316.2052  -245.0695 H6            1 RES     
   12113 H6         410.7519  -314.0404  -245.8775 H6            1 RES     
   12114 H6         409.6382  -314.0311  -247.2871 H6            1 RES     
   12115 H6         408.9268  -312.5007  -245.4863 H6            1 RES     
   12116 H6         408.7341  -313.8835  -244.3450 H6            1 RES     
   12117 H6         406.9498  -314.8347  -245.8909 H6            1 RES     
   12118 H6         406.5626  -313.1537  -245.3910 H6            1 RES     
   12119 H6         407.2355  -313.4623  -247.0336 H6            1 RES     
   12120 C0         415.0742  -319.6474  -250.2059 C0            1 RES     
   12121 C0         416.4887  -319.2659  -249.5735 C0            1 RES     
   12122 C0         417.3202  -318.5982  -250.7204 C0            1 RES     
   12123 C0         418.8179  -318.3858  -250.4207 C0            1 RES     
   12124 C0         419.5905  -317.7059  -251.5648 C0            1 RES     
   12125 C0         419.5940  -318.4572  -252.9082 C0            1 RES     
   12126 C0         420.0718  -319.9172  -252.8392 C0            1 RES     
   12127 C0         421.4891  -320.0709  -252.2596 C0            1 RES     
   12128 C0         421.9496  -321.5360  -252.1928 C0            1 RES     
   12129 C0         422.1393  -322.1681  -253.5833 C0            1 RES     
   12130 C0         422.7186  -323.5901  -253.5223 C0            1 RES     
   12131 C0         421.7769  -324.5974  -252.8621 C0            1 RES     
   12132 C0         416.7028  -318.5092  -248.1956 C0            1 RES     
   12133 C0         416.2960  -317.0210  -248.0018 C0            1 RES     
   12134 C0         415.0336  -316.8666  -247.1347 C0            1 RES     
   12135 C0         414.5129  -315.4527  -246.9357 C0            1 RES     
   12136 C0         415.3150  -314.5447  -246.0142 C0            1 RES     
   12137 C0         414.5010  -313.2464  -245.8387 C0            1 RES     
   12138 C0         415.0806  -312.2673  -244.8162 C0            1 RES     
   12139 C0         415.0037  -312.8067  -243.3871 C0            1 RES     
   12140 H6         414.8466  -318.9297  -251.0281 H6            1 RES     
   12141 H6         415.2794  -320.5700  -250.7947 H6            1 RES     
   12142 H6         416.9557  -320.2549  -249.3596 H6            1 RES     
   12143 H6         416.8672  -317.6150  -250.9721 H6            1 RES     
   12144 H6         417.2440  -319.2493  -251.6177 H6            1 RES     
   12145 H6         419.2841  -319.3615  -250.1691 H6            1 RES     
   12146 H6         418.9447  -317.7032  -249.5582 H6            1 RES     
   12147 H6         420.6399  -317.5664  -251.2277 H6            1 RES     
   12148 H6         419.1709  -316.6902  -251.7365 H6            1 RES     
   12149 H6         420.2445  -317.8930  -253.6118 H6            1 RES     
   12150 H6         418.5682  -318.4501  -253.3347 H6            1 RES     
   12151 H6         419.3603  -320.5126  -252.2281 H6            1 RES     
   12152 H6         420.0405  -320.3114  -253.8754 H6            1 RES     
   12153 H6         421.4947  -319.6862  -251.2184 H6            1 RES     
   12154 H6         422.2153  -319.4755  -252.8543 H6            1 RES     
   12155 H6         422.9286  -321.5571  -251.6662 H6            1 RES     
   12156 H6         421.2178  -322.1146  -251.5899 H6            1 RES     
   12157 H6         421.1804  -322.2001  -254.1404 H6            1 RES     
   12158 H6         422.8551  -321.5374  -254.1544 H6            1 RES     
   12159 H6         423.6906  -323.5782  -252.9830 H6            1 RES     
   12160 H6         422.9052  -323.9298  -254.5638 H6            1 RES     
   12161 H6         421.5933  -324.3414  -251.7991 H6            1 RES     
   12162 H6         420.8091  -324.6319  -253.4062 H6            1 RES     
   12163 H6         422.2385  -325.6067  -252.8956 H6            1 RES     
   12164 H6         417.7953  -318.5366  -248.0296 H6            1 RES     
   12165 H6         416.4194  -319.1168  -247.3157 H6            1 RES     
   12166 H6         417.0975  -316.5257  -247.4106 H6            1 RES     
   12167 H6         416.2306  -316.4973  -248.9770 H6            1 RES     
   12168 H6         415.1832  -317.3574  -246.1463 H6            1 RES     
   12169 H6         414.1936  -317.3486  -247.6223 H6            1 RES     
   12170 H6         414.3370  -314.9720  -247.9225 H6            1 RES     
   12171 H6         413.5477  -315.5790  -246.4179 H6            1 RES     
   12172 H6         415.4314  -315.0671  -245.0411 H6            1 RES     
   12173 H6         416.3186  -314.3294  -246.4365 H6            1 RES     
   12174 H6         414.4431  -312.7400  -246.8274 H6            1 RES     
   12175 H6         413.4594  -313.4834  -245.5211 H6            1 RES     
   12176 H6         414.4634  -311.3430  -244.8570 H6            1 RES     
   12177 H6         416.1244  -312.0092  -245.0837 H6            1 RES     
   12178 H6         415.6316  -313.7110  -243.2609 H6            1 RES     
   12179 H6         415.3672  -312.0307  -242.6828 H6            1 RES     
   12180 H6         413.9516  -313.0541  -243.1250 H6            1 RES     
   12181 C0         411.5863  -332.3476  -252.5861 C0            1 RES     
   12182 C1         411.1672  -330.8616  -252.6278 C1            1 RES     
   12183 C1         410.2440  -330.6114  -253.5923 C1            1 RES     
   12184 S2         409.8363  -328.9933  -253.7257 S2            1 RES     
   12185 C1         410.9314  -328.5481  -252.5036 C1            1 RES     
   12186 C1         411.6008  -329.6748  -252.0137 C1            1 RES     
   12187 C1         409.9773  -331.8100  -254.2887 C1            1 RES     
   12188 C1         410.7804  -332.7964  -253.8061 C1            1 RES     
   12189 C1         410.6747  -333.9709  -254.5412 C1            1 RES     
   12190 C1         409.7295  -333.8267  -255.5708 C1            1 RES     
   12191 S2         409.0469  -332.2720  -255.5878 S2            1 RES     
   12192 H3         412.3883  -329.5898  -251.2891 H3            1 RES     
   12193 H3         411.2473  -334.8702  -254.3480 H3            1 RES     
   12194 N4         407.8825  -336.3091  -257.6866 N4            1 RES     
   12195 C1         408.1631  -335.4235  -256.6860 C1            1 RES     
   12196 C1         409.4249  -334.8097  -256.6046 C1            1 RES     
   12197 C1         410.3698  -335.1141  -257.5862 C1            1 RES     
   12198 N4         411.6024  -334.5491  -257.6567 N4            1 RES     
   12199 S2         412.2236  -335.2332  -259.0271 S2            1 RES     
   12200 N4         411.0116  -336.2277  -259.5566 N4            1 RES     
   12201 C1         410.0472  -336.0219  -258.6259 C1            1 RES     
   12202 C1         408.7925  -336.6252  -258.6502 C1            1 RES     
   12203 H5         407.4024  -335.2016  -255.9425 H5            1 RES     
   12204 C0         411.1695  -333.2361  -251.3615 C0            1 RES     
   12205 C0         409.7587  -333.7995  -250.9441 C0            1 RES     
   12206 C0         409.9918  -334.5007  -249.5598 C0            1 RES     
   12207 C0         408.7874  -335.2147  -248.9338 C0            1 RES     
   12208 C0         409.1199  -335.8234  -247.5511 C0            1 RES     
   12209 C0         410.2049  -336.9228  -247.5434 C0            1 RES     
   12210 C0         409.9352  -338.1059  -248.4898 C0            1 RES     
   12211 C0         408.5961  -338.8103  -248.2082 C0            1 RES     
   12212 C0         408.3034  -339.9546  -249.1891 C0            1 RES     
   12213 C0         409.2709  -341.1411  -249.0415 C0            1 RES     
   12214 C0         408.8994  -342.3262  -249.9470 C0            1 RES     
   12215 C0         409.0343  -342.0110  -251.4373 C0            1 RES     
   12216 C0         408.5219  -332.8430  -250.9167 C0            1 RES     
   12217 C0         408.4936  -331.6625  -249.8978 C0            1 RES     
   12218 C0         408.3704  -330.3447  -250.6688 C0            1 RES     
   12219 C0         408.6493  -329.0460  -249.9175 C0            1 RES     
   12220 C0         407.5239  -328.5158  -249.0413 C0            1 RES     
   12221 C0         407.9984  -327.1847  -248.4214 C0            1 RES     
   12222 C0         406.9114  -326.4212  -247.6613 C0            1 RES     
   12223 C0         405.8241  -325.8795  -248.5917 C0            1 RES     
   12224 H6         411.5088  -332.7272  -250.4957 H6            1 RES     
   12225 H6         411.7867  -334.1565  -251.4696 H6            1 RES     
   12226 H6         409.4935  -334.5784  -251.6935 H6            1 RES     
   12227 H6         410.3454  -333.7473  -248.8223 H6            1 RES     
   12228 H6         410.8036  -335.2478  -249.6913 H6            1 RES     
   12229 H6         408.4060  -335.9949  -249.6235 H6            1 RES     
   12230 H6         407.9772  -334.4783  -248.7585 H6            1 RES     
   12231 H6         408.1845  -336.2403  -247.1239 H6            1 RES     
   12232 H6         409.4466  -335.0130  -246.8624 H6            1 RES     
   12233 H6         410.2998  -337.3061  -246.5030 H6            1 RES     
   12234 H6         411.1877  -336.4807  -247.8134 H6            1 RES     
   12235 H6         409.9487  -337.7452  -249.5399 H6            1 RES     
   12236 H6         410.7730  -338.8234  -248.3676 H6            1 RES     
   12237 H6         407.7729  -338.0777  -248.3336 H6            1 RES     
   12238 H6         408.5713  -339.1883  -247.1627 H6            1 RES     
   12239 H6         407.2741  -340.3197  -248.9807 H6            1 RES     
   12240 H6         408.3262  -339.5491  -250.2224 H6            1 RES     
   12241 H6         410.3137  -340.8340  -249.2644 H6            1 RES     
   12242 H6         409.2266  -341.4938  -247.9880 H6            1 RES     
   12243 H6         407.8606  -342.6569  -249.7281 H6            1 RES     
   12244 H6         409.5861  -343.1681  -249.7132 H6            1 RES     
   12245 H6         408.3326  -341.2104  -251.7466 H6            1 RES     
   12246 H6         410.0748  -341.6995  -251.6701 H6            1 RES     
   12247 H6         408.7951  -342.9199  -252.0281 H6            1 RES     
   12248 H6         407.6228  -333.4628  -250.7124 H6            1 RES     
   12249 H6         408.3363  -332.4858  -251.9523 H6            1 RES     
   12250 H6         407.6175  -331.7495  -249.2166 H6            1 RES     
   12251 H6         409.4141  -331.6705  -249.2794 H6            1 RES     
   12252 H6         407.4272  -330.2839  -251.2515 H6            1 RES     
   12253 H6         409.1769  -330.3946  -251.3691 H6            1 RES     
   12254 H6         409.5742  -329.1554  -249.3460 H6            1 RES     
   12255 H6         408.8337  -328.2688  -250.6937 H6            1 RES     
   12256 H6         406.6438  -328.3545  -249.6993 H6            1 RES     
   12257 H6         407.2559  -329.2390  -248.2423 H6            1 RES     
   12258 H6         408.8348  -327.4105  -247.7216 H6            1 RES     
   12259 H6         408.3957  -326.5071  -249.2111 H6            1 RES     
   12260 H6         407.3931  -325.5471  -247.1705 H6            1 RES     
   12261 H6         406.4669  -327.0657  -246.8739 H6            1 RES     
   12262 H6         405.2698  -326.6991  -249.0899 H6            1 RES     
   12263 H6         405.1005  -325.2780  -248.0050 H6            1 RES     
   12264 H6         406.2773  -325.2232  -249.3680 H6            1 RES     
   12265 C0         413.1495  -332.3411  -252.8137 C0            1 RES     
   12266 C0         414.2487  -332.7484  -251.7310 C0            1 RES     
   12267 C0         415.5889  -332.0797  -252.1883 C0            1 RES     
   12268 C0         416.8554  -332.5485  -251.4438 C0            1 RES     
   12269 C0         418.1447  -331.8486  -251.9088 C0            1 RES     
   12270 C0         418.5084  -332.0344  -253.3927 C0            1 RES     
   12271 C0         418.5845  -333.4945  -253.8691 C0            1 RES     
   12272 C0         419.5882  -334.3469  -253.0728 C0            1 RES     
   12273 C0         419.6485  -335.8044  -253.5579 C0            1 RES     
   12274 C0         420.2235  -335.9392  -254.9793 C0            1 RES     
   12275 C0         420.4016  -337.4009  -255.4186 C0            1 RES     
   12276 C0         419.0787  -338.1543  -255.5586 C0            1 RES     
   12277 C0         414.0667  -332.6496  -250.1581 C0            1 RES     
   12278 C0         413.9573  -331.2819  -249.4263 C0            1 RES     
   12279 C0         412.5243  -330.9858  -248.9486 C0            1 RES     
   12280 C0         412.2946  -329.6426  -248.2759 C0            1 RES     
   12281 C0         412.8503  -329.4707  -246.8692 C0            1 RES     
   12282 C0         412.3424  -328.1116  -246.3458 C0            1 RES     
   12283 C0         412.6755  -327.8316  -244.8792 C0            1 RES     
   12284 C0         411.9266  -328.7636  -243.9254 C0            1 RES     
   12285 H6         413.4280  -331.3534  -253.2495 H6            1 RES     
   12286 H6         413.3593  -333.0097  -253.6791 H6            1 RES     
   12287 H6         414.3625  -333.8478  -251.8736 H6            1 RES     
   12288 H6         415.5011  -330.9774  -252.0769 H6            1 RES     
   12289 H6         415.7286  -332.3040  -253.2677 H6            1 RES     
   12290 H6         416.9567  -333.6491  -251.5486 H6            1 RES     
   12291 H6         416.7814  -332.3035  -250.3666 H6            1 RES     
   12292 H6         418.9801  -332.2291  -251.2830 H6            1 RES     
   12293 H6         418.0625  -330.7582  -251.7057 H6            1 RES     
   12294 H6         419.4903  -331.5421  -253.5665 H6            1 RES     
   12295 H6         417.7616  -331.5051  -254.0222 H6            1 RES     
   12296 H6         417.5776  -333.9595  -253.8043 H6            1 RES     
   12297 H6         418.8757  -333.4653  -254.9389 H6            1 RES     
   12298 H6         419.2699  -334.3767  -252.0098 H6            1 RES     
   12299 H6         420.6017  -333.8931  -253.1198 H6            1 RES     
   12300 H6         420.3112  -336.3634  -252.8618 H6            1 RES     
   12301 H6         418.6305  -336.2446  -253.4977 H6            1 RES     
   12302 H6         419.5789  -335.4229  -255.7202 H6            1 RES     
   12303 H6         421.2263  -335.4591  -254.9929 H6            1 RES     
   12304 H6         421.0603  -337.9332  -254.6985 H6            1 RES     
   12305 H6         420.9016  -337.4026  -256.4111 H6            1 RES     
   12306 H6         418.5544  -338.2335  -254.5850 H6            1 RES     
   12307 H6         418.4206  -337.6415  -256.2920 H6            1 RES     
   12308 H6         419.2803  -339.1837  -255.9227 H6            1 RES     
   12309 H6         414.9709  -333.1309  -249.7423 H6            1 RES     
   12310 H6         413.3339  -333.3748  -249.7572 H6            1 RES     
   12311 H6         414.5506  -331.3521  -248.4880 H6            1 RES     
   12312 H6         414.3976  -330.4684  -250.0377 H6            1 RES     
   12313 H6         412.1613  -331.8064  -248.2889 H6            1 RES     
   12314 H6         411.8590  -330.9259  -249.8026 H6            1 RES     
   12315 H6         412.6313  -328.8217  -248.9456 H6            1 RES     
   12316 H6         411.2018  -329.5771  -248.1449 H6            1 RES     
   12317 H6         412.4566  -330.3010  -246.2456 H6            1 RES     
   12318 H6         413.9597  -329.5063  -246.8684 H6            1 RES     
   12319 H6         412.7908  -327.3111  -246.9746 H6            1 RES     
   12320 H6         411.2354  -328.0445  -246.4556 H6            1 RES     
   12321 H6         412.3453  -326.7930  -244.6578 H6            1 RES     
   12322 H6         413.7696  -327.8986  -244.7167 H6            1 RES     
   12323 H6         412.2373  -329.8184  -244.0622 H6            1 RES     
   12324 H6         412.1467  -328.4699  -242.8786 H6            1 RES     
   12325 H6         410.8297  -328.6824  -244.0899 H6            1 RES     
   12326 C0         408.1559  -341.2114  -261.5033 C0            1 RES     
   12327 C1         408.1274  -339.7597  -260.9765 C1            1 RES     
   12328 C1         407.7371  -338.8719  -261.9276 C1            1 RES     
   12329 S2         407.7840  -337.2785  -261.4162 S2            1 RES     
   12330 C1         408.3807  -337.7177  -259.8858 C1            1 RES     
   12331 C1         408.5365  -339.1057  -259.8023 C1            1 RES     
   12332 C1         407.5067  -339.5688  -263.1334 C1            1 RES     
   12333 C1         407.8158  -340.8819  -262.9576 C1            1 RES     
   12334 C1         407.7496  -341.6037  -264.1433 C1            1 RES     
   12335 C1         407.3418  -340.7768  -265.2036 C1            1 RES     
   12336 S2         407.0835  -339.1778  -264.6938 S2            1 RES     
   12337 H3         408.9740  -339.5713  -258.9397 H3            1 RES     
   12338 H3         407.9857  -342.6571  -264.2353 H3            1 RES     
   12339 N4         405.9731  -341.5130  -268.6146 N4            1 RES     
   12340 C1         406.0271  -341.1968  -267.2875 C1            1 RES     
   12341 C1         407.2577  -341.1569  -266.6093 C1            1 RES     
   12342 C1         408.4189  -341.4266  -267.3358 C1            1 RES     
   12343 N4         409.6721  -341.3658  -266.8170 N4            1 RES     
   12344 S2         410.6128  -341.7105  -268.1315 S2            1 RES     
   12345 N4         409.5183  -341.9425  -269.3508 N4            1 RES     
   12346 C1         408.3378  -341.7332  -268.7174 C1            1 RES     
   12347 C1         407.0936  -341.7863  -269.3402 C1            1 RES     
   12348 H5         405.1055  -340.9834  -266.7530 H5            1 RES     
   12349 C0         407.1064  -342.2496  -260.9708 C0            1 RES     
   12350 C0         405.5584  -342.3637  -261.2401 C0            1 RES     
   12351 C0         405.0680  -343.5335  -260.3162 C0            1 RES     
   12352 C0         403.5889  -343.9254  -260.4217 C0            1 RES     
   12353 C0         403.2084  -345.0512  -259.4313 C0            1 RES     
   12354 C0         403.9305  -346.4010  -259.6375 C0            1 RES     
   12355 C0         403.7988  -346.9970  -261.0501 C0            1 RES     
   12356 C0         402.3369  -347.2123  -261.4801 C0            1 RES     
   12357 C0         402.2069  -347.7545  -262.9107 C0            1 RES     
   12358 C0         402.7498  -349.1849  -263.0678 C0            1 RES     
   12359 C0         402.5109  -349.7594  -264.4733 C0            1 RES     
   12360 C0         403.2860  -349.0213  -265.5655 C0            1 RES     
   12361 C0         404.6555  -341.0938  -261.1084 C0            1 RES     
   12362 C0         404.4919  -340.4159  -259.7133 C0            1 RES     
   12363 C0         404.9765  -338.9659  -259.8066 C0            1 RES     
   12364 C0         405.2184  -338.2060  -258.5056 C0            1 RES     
   12365 C0         403.9874  -337.6386  -257.8141 C0            1 RES     
   12366 C0         404.4627  -336.8768  -256.5590 C0            1 RES     
   12367 C0         403.3631  -336.0819  -255.8509 C0            1 RES     
   12368 C0         402.8776  -334.8939  -256.6841 C0            1 RES     
   12369 H6         407.1824  -342.2336  -259.9136 H6            1 RES     
   12370 H6         407.4960  -343.2333  -261.3174 H6            1 RES     
   12371 H6         405.4432  -342.6803  -262.3008 H6            1 RES     
   12372 H6         405.2612  -343.2672  -259.2540 H6            1 RES     
   12373 H6         405.6788  -344.4308  -260.5534 H6            1 RES     
   12374 H6         403.3463  -344.2212  -261.4625 H6            1 RES     
   12375 H6         402.9601  -343.0532  -260.1517 H6            1 RES     
   12376 H6         402.1134  -345.2163  -259.5011 H6            1 RES     
   12377 H6         403.4094  -344.7089  -258.3919 H6            1 RES     
   12378 H6         403.5220  -347.1267  -258.8993 H6            1 RES     
   12379 H6         405.0117  -346.2859  -259.4098 H6            1 RES     
   12380 H6         404.3029  -346.3273  -261.7785 H6            1 RES     
   12381 H6         404.3399  -347.9660  -261.0508 H6            1 RES     
   12382 H6         401.8135  -346.2345  -261.4716 H6            1 RES     
   12383 H6         401.8207  -347.8913  -260.7665 H6            1 RES     
   12384 H6         401.1254  -347.7648  -263.1683 H6            1 RES     
   12385 H6         402.7226  -347.0552  -263.6019 H6            1 RES     
   12386 H6         403.8363  -349.2246  -262.8454 H6            1 RES     
   12387 H6         402.2188  -349.8375  -262.3410 H6            1 RES     
   12388 H6         401.4244  -349.7402  -264.7088 H6            1 RES     
   12389 H6         402.8457  -350.8191  -264.4746 H6            1 RES     
   12390 H6         402.9583  -347.9657  -265.6510 H6            1 RES     
   12391 H6         404.3752  -349.0530  -265.3500 H6            1 RES     
   12392 H6         403.1029  -349.5146  -266.5430 H6            1 RES     
   12393 H6         403.6353  -341.3705  -261.4507 H6            1 RES     
   12394 H6         404.9752  -340.3592  -261.8782 H6            1 RES     
   12395 H6         403.4233  -340.4057  -259.4020 H6            1 RES     
   12396 H6         405.0693  -340.9739  -258.9484 H6            1 RES     
   12397 H6         404.3766  -338.3663  -260.5232 H6            1 RES     
   12398 H6         405.9602  -339.0623  -260.2145 H6            1 RES     
   12399 H6         405.7956  -338.8369  -257.8252 H6            1 RES     
   12400 H6         405.8598  -337.3337  -258.7671 H6            1 RES     
   12401 H6         403.4957  -336.9493  -258.5328 H6            1 RES     
   12402 H6         403.2744  -338.4414  -257.5306 H6            1 RES     
   12403 H6         404.8847  -337.6203  -255.8453 H6            1 RES     
   12404 H6         405.2773  -336.1640  -256.8213 H6            1 RES     
   12405 H6         403.7943  -335.6730  -254.9107 H6            1 RES     
   12406 H6         402.5147  -336.7481  -255.5879 H6            1 RES     
   12407 H6         402.3967  -335.2266  -257.6250 H6            1 RES     
   12408 H6         402.1347  -334.3121  -256.1017 H6            1 RES     
   12409 H6         403.7322  -334.2246  -256.9300 H6            1 RES     
   12410 C0         409.6422  -341.6997  -261.2842 C0            1 RES     
   12411 C0         410.1084  -342.8286  -260.2573 C0            1 RES     
   12412 C0         411.6324  -342.5839  -259.9929 C0            1 RES     
   12413 C0         412.3671  -343.7102  -259.2382 C0            1 RES     
   12414 C0         413.8555  -343.4172  -258.9796 C0            1 RES     
   12415 C0         414.7214  -343.1979  -260.2331 C0            1 RES     
   12416 C0         414.6527  -344.3223  -261.2798 C0            1 RES     
   12417 C0         415.0474  -345.7017  -260.7234 C0            1 RES     
   12418 C0         414.9687  -346.8152  -261.7804 C0            1 RES     
   12419 C0         416.0098  -346.6508  -262.9020 C0            1 RES     
   12420 C0         416.0174  -347.8268  -263.8911 C0            1 RES     
   12421 C0         414.7245  -347.9446  -264.6983 C0            1 RES     
   12422 C0         409.3507  -343.2204  -258.9197 C0            1 RES     
   12423 C0         409.2689  -342.2519  -257.7059 C0            1 RES     
   12424 C0         407.8678  -341.6363  -257.5407 C0            1 RES     
   12425 C0         407.6963  -340.6244  -256.4199 C0            1 RES     
   12426 C0         407.6786  -341.1658  -254.9973 C0            1 RES     
   12427 C0         407.3209  -339.9867  -254.0696 C0            1 RES     
   12428 C0         407.1049  -340.3740  -252.6055 C0            1 RES     
   12429 C0         405.8556  -341.2344  -252.4106 C0            1 RES     
   12430 H6         410.2806  -340.7978  -261.1358 H6            1 RES     
   12431 H6         410.0209  -342.0549  -262.2693 H6            1 RES     
   12432 H6         410.0224  -343.7708  -260.8463 H6            1 RES     
   12433 H6         411.7545  -341.6379  -259.4223 H6            1 RES     
   12434 H6         412.1310  -342.4555  -260.9777 H6            1 RES     
   12435 H6         412.2547  -344.6618  -259.7988 H6            1 RES     
   12436 H6         411.9326  -343.8439  -258.2286 H6            1 RES     
   12437 H6         414.2715  -344.2683  -258.3992 H6            1 RES     
   12438 H6         413.9441  -342.5153  -258.3348 H6            1 RES     
   12439 H6         415.7751  -343.0722  -259.9010 H6            1 RES     
   12440 H6         414.4189  -342.2494  -260.7260 H6            1 RES     
   12441 H6         413.6253  -344.3775  -261.6990 H6            1 RES     
   12442 H6         415.3389  -344.0339  -262.1020 H6            1 RES     
   12443 H6         414.3396  -345.9784  -259.9143 H6            1 RES     
   12444 H6         416.0712  -345.6647  -260.2922 H6            1 RES     
   12445 H6         415.1633  -347.7814  -261.2661 H6            1 RES     
   12446 H6         413.9387  -346.8432  -262.1953 H6            1 RES     
   12447 H6         415.8395  -345.7124  -263.4690 H6            1 RES     
   12448 H6         417.0168  -346.5987  -262.4333 H6            1 RES     
   12449 H6         416.2050  -348.7769  -263.3453 H6            1 RES     
   12450 H6         416.8528  -347.6682  -264.6066 H6            1 RES     
   12451 H6         413.8568  -348.1575  -264.0418 H6            1 RES     
   12452 H6         414.5383  -347.0069  -265.2640 H6            1 RES     
   12453 H6         414.8192  -348.7817  -265.4215 H6            1 RES     
   12454 H6         409.8881  -344.1112  -258.5458 H6            1 RES     
   12455 H6         408.3785  -343.7170  -259.0984 H6            1 RES     
   12456 H6         409.4148  -342.8543  -256.7823 H6            1 RES     
   12457 H6         410.0821  -341.4990  -257.7434 H6            1 RES     
   12458 H6         407.1030  -342.4403  -257.4449 H6            1 RES     
   12459 H6         407.6222  -341.0455  -258.4161 H6            1 RES     
   12460 H6         408.4416  -339.8070  -256.5310 H6            1 RES     
   12461 H6         406.6839  -340.2128  -256.5653 H6            1 RES     
   12462 H6         406.8985  -341.9545  -254.9447 H6            1 RES     
   12463 H6         408.6607  -341.6033  -254.7218 H6            1 RES     
   12464 H6         408.1453  -339.2420  -254.1257 H6            1 RES     
   12465 H6         406.3906  -339.4853  -254.4232 H6            1 RES     
   12466 H6         406.9533  -339.4323  -252.0335 H6            1 RES     
   12467 H6         408.0029  -340.8888  -252.2102 H6            1 RES     
   12468 H6         405.9529  -342.2122  -252.9230 H6            1 RES     
   12469 H6         405.7063  -341.4233  -251.3278 H6            1 RES     
   12470 H6         404.9588  -340.7056  -252.8019 H6            1 RES     
   12471 C0         406.6286  -344.5283  -274.0139 C0            1 RES     
   12472 C1         406.7182  -343.4460  -272.9156 C1            1 RES     
   12473 C1         406.9396  -342.2072  -273.4270 C1            1 RES     
   12474 S2         407.1338  -341.0248  -272.2579 S2            1 RES     
   12475 C1         406.9687  -342.1519  -270.9957 C1            1 RES     
   12476 C1         406.7675  -343.4369  -271.5116 C1            1 RES     
   12477 C1         407.0526  -342.3079  -274.8305 C1            1 RES     
   12478 C1         406.9686  -343.6163  -275.1936 C1            1 RES     
   12479 C1         407.2149  -343.8056  -276.5482 C1            1 RES     
   12480 C1         407.4501  -342.5753  -277.1848 C1            1 RES     
   12481 S2         407.3737  -341.2756  -276.0946 S2            1 RES     
   12482 H3         406.7164  -344.2976  -270.8722 H3            1 RES     
   12483 H3         407.2284  -344.7702  -277.0412 H3            1 RES     
   12484 N4         407.4034  -341.5304  -280.7843 N4            1 RES     
   12485 C1         407.0011  -341.7359  -279.4959 C1            1 RES     
   12486 C1         407.8424  -342.3868  -278.5770 C1            1 RES     
   12487 C1         409.1043  -342.7940  -279.0136 C1            1 RES     
   12488 N4         410.0330  -343.3800  -278.2151 N4            1 RES     
   12489 S2         411.3122  -343.5679  -279.2447 S2            1 RES     
   12490 N4         410.7621  -342.9457  -280.6760 N4            1 RES     
   12491 C1         409.5060  -342.5514  -280.3511 C1            1 RES     
   12492 C1         408.6279  -341.9261  -281.2324 C1            1 RES     
   12493 H5         406.0158  -341.3988  -279.1855 H5            1 RES     
   12494 C0         405.2528  -345.2248  -274.3051 C0            1 RES     
   12495 C0         403.9512  -344.6632  -274.9923 C0            1 RES     
   12496 C0         402.8917  -345.8134  -274.8628 C0            1 RES     
   12497 C0         401.5259  -345.5737  -275.5180 C0            1 RES     
   12498 C0         400.5482  -346.7492  -275.2830 C0            1 RES     
   12499 C0         400.9746  -348.1085  -275.8800 C0            1 RES     
   12500 C0         401.2793  -348.0867  -277.3882 C0            1 RES     
   12501 C0         400.0952  -347.5884  -278.2356 C0            1 RES     
   12502 C0         400.4204  -347.5145  -279.7344 C0            1 RES     
   12503 C0         400.6498  -348.8947  -280.3731 C0            1 RES     
   12504 C0         400.8608  -348.8175  -281.8935 C0            1 RES     
   12505 C0         402.1447  -348.0863  -282.2872 C0            1 RES     
   12506 C0         403.3749  -343.2809  -274.5425 C0            1 RES     
   12507 C0         402.8316  -343.1178  -273.0896 C0            1 RES     
   12508 C0         403.6221  -342.0104  -272.3860 C0            1 RES     
   12509 C0         403.4959  -341.8924  -270.8698 C0            1 RES     
   12510 C0         402.2513  -341.1904  -270.3466 C0            1 RES     
   12511 C0         402.3519  -341.1404  -268.8076 C0            1 RES     
   12512 C0         401.2686  -340.2958  -268.1329 C0            1 RES     
   12513 C0         401.4253  -338.8035  -268.4329 C0            1 RES     
   12514 H6         404.9093  -345.6044  -273.3768 H6            1 RES     
   12515 H6         405.5187  -346.0975  -274.9434 H6            1 RES     
   12516 H6         404.1944  -344.5277  -276.0698 H6            1 RES     
   12517 H6         402.7064  -346.0215  -273.7863 H6            1 RES     
   12518 H6         403.3313  -346.7304  -275.3106 H6            1 RES     
   12519 H6         401.6521  -345.3804  -276.6027 H6            1 RES     
   12520 H6         401.0518  -344.6832  -275.0582 H6            1 RES     
   12521 H6         399.5614  -346.4665  -275.7045 H6            1 RES     
   12522 H6         400.3956  -346.8865  -274.1895 H6            1 RES     
   12523 H6         400.1595  -348.8409  -275.6862 H6            1 RES     
   12524 H6         401.8760  -348.4839  -275.3501 H6            1 RES     
   12525 H6         402.1635  -347.4410  -277.5738 H6            1 RES     
   12526 H6         401.5479  -349.1218  -277.6852 H6            1 RES     
   12527 H6         399.8413  -346.5549  -277.9233 H6            1 RES     
   12528 H6         399.2040  -348.2326  -278.0700 H6            1 RES     
   12529 H6         399.5537  -347.0381  -280.2424 H6            1 RES     
   12530 H6         401.3069  -346.8604  -279.8719 H6            1 RES     
   12531 H6         401.5237  -349.4040  -279.9163 H6            1 RES     
   12532 H6         399.7460  -349.5153  -280.1882 H6            1 RES     
   12533 H6         399.9875  -348.3215  -282.3707 H6            1 RES     
   12534 H6         400.9254  -349.8552  -282.2863 H6            1 RES     
   12535 H6         402.1196  -347.0247  -281.9685 H6            1 RES     
   12536 H6         403.0255  -348.5871  -281.8321 H6            1 RES     
   12537 H6         402.2555  -348.1073  -283.3916 H6            1 RES     
   12538 H6         402.5371  -343.0278  -275.2270 H6            1 RES     
   12539 H6         404.1251  -342.4973  -274.7824 H6            1 RES     
   12540 H6         401.7577  -342.8250  -273.0999 H6            1 RES     
   12541 H6         402.9232  -344.0758  -272.5386 H6            1 RES     
   12542 H6         403.5005  -341.0249  -272.8829 H6            1 RES     
   12543 H6         404.6389  -342.3131  -272.5192 H6            1 RES     
   12544 H6         403.6044  -342.8841  -270.4239 H6            1 RES     
   12545 H6         404.3643  -341.2835  -270.5298 H6            1 RES     
   12546 H6         402.2471  -340.1663  -270.7764 H6            1 RES     
   12547 H6         401.3257  -341.7207  -270.6552 H6            1 RES     
   12548 H6         402.2839  -342.1841  -268.4249 H6            1 RES     
   12549 H6         403.3400  -340.7324  -268.4949 H6            1 RES     
   12550 H6         401.3752  -340.4255  -267.0334 H6            1 RES     
   12551 H6         400.2604  -340.6513  -268.4327 H6            1 RES     
   12552 H6         401.2915  -338.5894  -269.5116 H6            1 RES     
   12553 H6         400.6624  -338.2301  -267.8682 H6            1 RES     
   12554 H6         402.4330  -338.4534  -268.1155 H6            1 RES     
   12555 C0         407.7613  -345.5705  -273.6581 C0            1 RES     
   12556 C0         407.5245  -347.0715  -273.1713 C0            1 RES     
   12557 C0         408.8355  -347.5098  -272.4354 C0            1 RES     
   12558 C0         408.9457  -349.0129  -272.1090 C0            1 RES     
   12559 C0         410.2379  -349.3945  -271.3655 C0            1 RES     
   12560 C0         411.5512  -349.0889  -272.1075 C0            1 RES     
   12561 C0         411.6515  -349.6732  -273.5264 C0            1 RES     
   12562 C0         411.4800  -351.2018  -273.5726 C0            1 RES     
   12563 C0         411.5777  -351.7693  -274.9980 C0            1 RES     
   12564 C0         412.9837  -351.6209  -275.6065 C0            1 RES     
   12565 C0         413.1180  -352.2975  -276.9796 C0            1 RES     
   12566 C0         412.2544  -351.6465  -278.0601 C0            1 RES     
   12567 C0         406.2364  -347.5949  -272.4072 C0            1 RES     
   12568 C0         405.9017  -347.1479  -270.9559 C0            1 RES     
   12569 C0         404.7224  -346.1600  -270.9042 C0            1 RES     
   12570 C0         404.3538  -345.6105  -269.5360 C0            1 RES     
   12571 C0         403.6598  -346.5636  -268.5732 C0            1 RES     
   12572 C0         403.2377  -345.7347  -267.3428 C0            1 RES     
   12573 C0         402.3846  -346.4964  -266.3268 C0            1 RES     
   12574 C0         401.0022  -346.8494  -266.8777 C0            1 RES     
   12575 H6         408.4728  -345.0766  -272.9561 H6            1 RES     
   12576 H6         408.4073  -345.6754  -274.5591 H6            1 RES     
   12577 H6         407.4701  -347.6502  -274.1222 H6            1 RES     
   12578 H6         408.9302  -346.9347  -271.4891 H6            1 RES     
   12579 H6         409.6954  -347.2411  -273.0859 H6            1 RES     
   12580 H6         408.8545  -349.6000  -273.0468 H6            1 RES     
   12581 H6         408.1320  -349.3183  -271.4229 H6            1 RES     
   12582 H6         410.1929  -350.4828  -271.1467 H6            1 RES     
   12583 H6         410.2637  -348.8708  -270.3846 H6            1 RES     
   12584 H6         412.3895  -349.4812  -271.4911 H6            1 RES     
   12585 H6         411.6848  -347.9883  -272.1779 H6            1 RES     
   12586 H6         410.8867  -349.1995  -274.1782 H6            1 RES     
   12587 H6         412.6506  -349.3912  -273.9166 H6            1 RES     
   12588 H6         410.4693  -351.4612  -273.1939 H6            1 RES     
   12589 H6         412.2330  -351.6939  -272.9198 H6            1 RES     
   12590 H6         411.3356  -352.8531  -274.9457 H6            1 RES     
   12591 H6         410.8149  -351.2727  -275.6345 H6            1 RES     
   12592 H6         413.2621  -350.5518  -275.7099 H6            1 RES     
   12593 H6         413.7103  -352.1069  -274.9193 H6            1 RES     
   12594 H6         412.8608  -353.3758  -276.8950 H6            1 RES     
   12595 H6         414.1797  -352.2193  -277.2985 H6            1 RES     
   12596 H6         411.1751  -351.7396  -277.8245 H6            1 RES     
   12597 H6         412.5179  -350.5727  -278.1669 H6            1 RES     
   12598 H6         412.4373  -352.1544  -279.0304 H6            1 RES     
   12599 H6         406.3721  -348.6905  -272.3506 H6            1 RES     
   12600 H6         405.3286  -347.6059  -273.0393 H6            1 RES     
   12601 H6         405.5361  -348.0411  -270.4030 H6            1 RES     
   12602 H6         406.8091  -346.7825  -270.4340 H6            1 RES     
   12603 H6         403.8240  -346.6074  -271.3869 H6            1 RES     
   12604 H6         404.9776  -345.2570  -271.4475 H6            1 RES     
   12605 H6         405.2438  -345.1391  -269.0654 H6            1 RES     
   12606 H6         403.5982  -344.8338  -269.7394 H6            1 RES     
   12607 H6         402.7680  -346.9773  -269.0898 H6            1 RES     
   12608 H6         404.3315  -347.3966  -268.2786 H6            1 RES     
   12609 H6         404.1607  -345.3741  -266.8375 H6            1 RES     
   12610 H6         402.6571  -344.8385  -267.6614 H6            1 RES     
   12611 H6         402.2335  -345.8251  -265.4530 H6            1 RES     
   12612 H6         402.9171  -347.4068  -265.9872 H6            1 RES     
   12613 H6         401.0735  -347.5525  -267.7312 H6            1 RES     
   12614 H6         400.4022  -347.3323  -266.0794 H6            1 RES     
   12615 H6         400.4724  -345.9287  -267.2072 H6            1 RES     
   12616 C0         409.4392  -342.5085  -286.5785 C0            1 RES     
   12617 C1         409.3279  -341.9861  -285.1292 C1            1 RES     
   12618 C1         410.0007  -340.8203  -284.9466 C1            1 RES     
   12619 S2         409.9773  -340.2742  -283.3643 S2            1 RES     
   12620 C1         409.0850  -341.6238  -282.8417 C1            1 RES     
   12621 C1         408.8231  -342.4817  -283.9155 C1            1 RES     
   12622 C1         410.6301  -340.4634  -286.1588 C1            1 RES     
   12623 C1         410.4077  -341.4373  -287.0823 C1            1 RES     
   12624 C1         411.1171  -341.2227  -288.2578 C1            1 RES     
   12625 C1         411.8494  -340.0260  -288.1821 C1            1 RES     
   12626 S2         411.6414  -339.2522  -286.6850 S2            1 RES     
   12627 H3         408.3360  -343.4277  -283.7734 H3            1 RES     
   12628 H3         411.1088  -341.8905  -289.1109 H3            1 RES     
   12629 N4         413.4516  -337.8617  -290.7897 N4            1 RES     
   12630 C1         412.5413  -338.3373  -289.8901 C1            1 RES     
   12631 C1         412.7876  -339.5255  -289.1806 C1            1 RES     
   12632 C1         413.9953  -340.1886  -289.4059 C1            1 RES     
   12633 N4         414.3812  -341.3111  -288.7467 N4            1 RES     
   12634 S2         415.8855  -341.5861  -289.3737 S2            1 RES     
   12635 N4         416.0939  -340.3522  -290.4566 N4            1 RES     
   12636 C1         414.9325  -339.6638  -290.3308 C1            1 RES     
   12637 C1         414.6329  -338.4972  -291.0294 C1            1 RES     
   12638 H5         411.6148  -337.7924  -289.7315 H5            1 RES     
   12639 C0         408.1709  -342.5055  -287.5028 C0            1 RES     
   12640 C0         407.4030  -341.3058  -288.1759 C0            1 RES     
   12641 C0         406.1515  -341.9561  -288.8639 C0            1 RES     
   12642 C0         405.2424  -341.0221  -289.6722 C0            1 RES     
   12643 C0         404.0170  -341.7606  -290.2602 C0            1 RES     
   12644 C0         404.3307  -342.8846  -291.2722 C0            1 RES     
   12645 C0         405.1994  -342.4560  -292.4679 C0            1 RES     
   12646 C0         404.5852  -341.2987  -293.2754 C0            1 RES     
   12647 C0         405.4800  -340.8358  -294.4341 C0            1 RES     
   12648 C0         405.6296  -341.8913  -295.5427 C0            1 RES     
   12649 C0         406.4316  -341.3762  -296.7484 C0            1 RES     
   12650 C0         407.8943  -341.0788  -296.4163 C0            1 RES     
   12651 C0         407.0182  -340.0562  -287.3184 C0            1 RES     
   12652 C0         405.9993  -340.2185  -286.1487 C0            1 RES     
   12653 C0         406.6743  -339.7948  -284.8407 C0            1 RES     
   12654 C0         405.9928  -340.1709  -283.5280 C0            1 RES     
   12655 C0         404.8320  -339.2894  -283.0910 C0            1 RES     
   12656 C0         404.3290  -339.8152  -281.7302 C0            1 RES     
   12657 C0         403.2844  -338.9219  -281.0572 C0            1 RES     
   12658 C0         403.8726  -337.5866  -280.5967 C0            1 RES     
   12659 H6         407.4160  -343.0285  -286.9734 H6            1 RES     
   12660 H6         408.4653  -343.1360  -288.3719 H6            1 RES     
   12661 H6         408.0730  -340.9053  -288.9693 H6            1 RES     
   12662 H6         405.5176  -342.4401  -288.0890 H6            1 RES     
   12663 H6         406.5165  -342.7544  -289.5451 H6            1 RES     
   12664 H6         405.8235  -340.5263  -290.4762 H6            1 RES     
   12665 H6         404.8361  -340.2381  -289.0018 H6            1 RES     
   12666 H6         403.3641  -341.0092  -290.7505 H6            1 RES     
   12667 H6         403.4212  -342.2014  -289.4304 H6            1 RES     
   12668 H6         403.3648  -343.2857  -291.6522 H6            1 RES     
   12669 H6         404.8444  -343.7224  -290.7539 H6            1 RES     
   12670 H6         406.2046  -342.1579  -292.1020 H6            1 RES     
   12671 H6         405.3264  -343.3458  -293.1189 H6            1 RES     
   12672 H6         404.4649  -340.4209  -292.6083 H6            1 RES     
   12673 H6         403.5819  -341.5859  -293.6595 H6            1 RES     
   12674 H6         405.0111  -339.9311  -294.8790 H6            1 RES     
   12675 H6         406.4703  -340.5479  -294.0228 H6            1 RES     
   12676 H6         406.1176  -342.8093  -295.1546 H6            1 RES     
   12677 H6         404.6127  -342.1602  -295.9030 H6            1 RES     
   12678 H6         405.9491  -340.4628  -297.1598 H6            1 RES     
   12679 H6         406.4135  -342.1604  -297.5357 H6            1 RES     
   12680 H6         407.9820  -340.2628  -295.6710 H6            1 RES     
   12681 H6         408.3911  -341.9915  -296.0240 H6            1 RES     
   12682 H6         408.4219  -340.7557  -297.3381 H6            1 RES     
   12683 H6         406.5950  -339.2939  -288.0071 H6            1 RES     
   12684 H6         407.9557  -339.5711  -286.9715 H6            1 RES     
   12685 H6         405.1095  -339.5686  -286.3069 H6            1 RES     
   12686 H6         405.6527  -341.2702  -286.0884 H6            1 RES     
   12687 H6         406.9791  -338.7271  -284.8502 H6            1 RES     
   12688 H6         407.5672  -340.3827  -284.8244 H6            1 RES     
   12689 H6         405.6951  -341.2215  -283.5681 H6            1 RES     
   12690 H6         406.7696  -340.0806  -282.7349 H6            1 RES     
   12691 H6         405.2238  -338.2546  -282.9951 H6            1 RES     
   12692 H6         404.0093  -339.3017  -283.8368 H6            1 RES     
   12693 H6         403.8870  -340.8241  -281.8940 H6            1 RES     
   12694 H6         405.1789  -339.9329  -281.0199 H6            1 RES     
   12695 H6         402.9193  -339.4532  -280.1508 H6            1 RES     
   12696 H6         402.4232  -338.7560  -281.7381 H6            1 RES     
   12697 H6         404.2237  -336.9796  -281.4544 H6            1 RES     
   12698 H6         403.0970  -337.0070  -280.0561 H6            1 RES     
   12699 H6         404.7252  -337.7630  -279.9034 H6            1 RES     
   12700 C0         410.0799  -343.9468  -286.4496 C0            1 RES     
   12701 C0         409.3449  -345.3249  -286.7759 C0            1 RES     
   12702 C0         410.1294  -346.4383  -286.0031 C0            1 RES     
   12703 C0         409.7666  -347.8900  -286.3759 C0            1 RES     
   12704 C0         410.5440  -348.9501  -285.5759 C0            1 RES     
   12705 C0         412.0753  -348.9107  -285.7255 C0            1 RES     
   12706 C0         412.5921  -348.9616  -287.1729 C0            1 RES     
   12707 C0         412.1184  -350.2032  -287.9489 C0            1 RES     
   12708 C0         412.6393  -350.2365  -289.3949 C0            1 RES     
   12709 C0         414.1661  -350.4130  -289.4775 C0            1 RES     
   12710 C0         414.6747  -350.5720  -290.9188 C0            1 RES     
   12711 C0         414.4720  -349.3196  -291.7718 C0            1 RES     
   12712 C0         407.7792  -345.5694  -286.6994 C0            1 RES     
   12713 C0         407.0100  -345.5624  -285.3480 C0            1 RES     
   12714 C0         406.1558  -344.2948  -285.1663 C0            1 RES     
   12715 C0         405.4116  -344.1582  -283.8483 C0            1 RES     
   12716 C0         404.2031  -345.0602  -283.6408 C0            1 RES     
   12717 C0         403.5272  -344.6150  -282.3279 C0            1 RES     
   12718 C0         402.1982  -345.3116  -282.0303 C0            1 RES     
   12719 C0         401.1021  -344.9196  -283.0223 C0            1 RES     
   12720 H6         410.5490  -344.0235  -285.4412 H6            1 RES     
   12721 H6         410.9868  -343.9625  -287.0956 H6            1 RES     
   12722 H6         409.5412  -345.4762  -287.8625 H6            1 RES     
   12723 H6         409.9700  -346.3034  -284.9114 H6            1 RES     
   12724 H6         411.2119  -346.2964  -286.2104 H6            1 RES     
   12725 H6         409.9232  -348.0395  -287.4648 H6            1 RES     
   12726 H6         408.7034  -348.0930  -286.1428 H6            1 RES     
   12727 H6         410.1769  -349.9494  -285.8935 H6            1 RES     
   12728 H6         410.2982  -348.8464  -284.4961 H6            1 RES     
   12729 H6         412.4948  -349.7699  -285.1577 H6            1 RES     
   12730 H6         412.4660  -347.9846  -285.2525 H6            1 RES     
   12731 H6         412.2700  -348.0468  -287.7148 H6            1 RES     
   12732 H6         413.6996  -348.9491  -287.1158 H6            1 RES     
   12733 H6         411.0101  -350.1881  -288.0086 H6            1 RES     
   12734 H6         412.4254  -351.1300  -287.4175 H6            1 RES     
   12735 H6         412.1624  -351.1021  -289.9042 H6            1 RES     
   12736 H6         412.3180  -349.3080  -289.9129 H6            1 RES     
   12737 H6         414.6920  -349.5557  -289.0090 H6            1 RES     
   12738 H6         414.4373  -351.3366  -288.9210 H6            1 RES     
   12739 H6         414.1731  -351.4384  -291.4019 H6            1 RES     
   12740 H6         415.7651  -350.7830  -290.8767 H6            1 RES     
   12741 H6         413.3954  -349.0860  -291.8962 H6            1 RES     
   12742 H6         414.9871  -348.4516  -291.3079 H6            1 RES     
   12743 H6         414.9034  -349.4898  -292.7806 H6            1 RES     
   12744 H6         407.6354  -346.5851  -287.1112 H6            1 RES     
   12745 H6         407.2143  -345.0278  -287.4813 H6            1 RES     
   12746 H6         406.2687  -346.3913  -285.3767 H6            1 RES     
   12747 H6         407.6963  -345.7597  -284.4997 H6            1 RES     
   12748 H6         405.4440  -344.1853  -286.0159 H6            1 RES     
   12749 H6         406.7968  -343.4204  -285.1539 H6            1 RES     
   12750 H6         406.1260  -344.2397  -283.0004 H6            1 RES     
   12751 H6         404.9890  -343.1401  -283.8684 H6            1 RES     
   12752 H6         403.5181  -344.9122  -284.5023 H6            1 RES     
   12753 H6         404.5026  -346.1277  -283.5904 H6            1 RES     
   12754 H6         404.2328  -344.8162  -281.4919 H6            1 RES     
   12755 H6         403.3324  -343.5178  -282.3463 H6            1 RES     
   12756 H6         401.8691  -344.9786  -281.0215 H6            1 RES     
   12757 H6         402.3386  -346.4106  -282.0130 H6            1 RES     
   12758 H6         401.3448  -345.2580  -284.0491 H6            1 RES     
   12759 H6         400.1462  -345.3930  -282.7176 H6            1 RES     
   12760 H6         400.9623  -343.8163  -283.0256 H6            1 RES     
   12761 C0         417.3258  -337.4491  -295.6368 C0            1 RES     
   12762 C1         416.7736  -337.4581  -294.1944 C1            1 RES     
   12763 C1         417.5609  -336.7606  -293.3348 C1            1 RES     
   12764 S2         417.0401  -336.8275  -291.7452 S2            1 RES     
   12765 C1         415.7394  -337.8471  -292.1444 C1            1 RES     
   12766 C1         415.7369  -338.1210  -293.5165 C1            1 RES     
   12767 C1         418.6773  -336.2638  -294.0414 C1            1 RES     
   12768 C1         418.6254  -336.7044  -295.3275 C1            1 RES     
   12769 C1         419.7675  -336.3724  -296.0463 C1            1 RES     
   12770 C1         420.6567  -335.6330  -295.2482 C1            1 RES     
   12771 S2         420.0550  -335.4061  -293.6766 S2            1 RES     
   12772 H3         415.0366  -338.8088  -293.9511 H3            1 RES     
   12773 H3         419.9469  -336.6513  -297.0777 H3            1 RES     
   12774 N4         423.5897  -333.4489  -296.0713 N4            1 RES     
   12775 C1         422.3187  -333.8373  -295.7584 C1            1 RES     
   12776 C1         421.9969  -335.1992  -295.6266 C1            1 RES     
   12777 C1         423.0165  -336.1366  -295.8019 C1            1 RES     
   12778 N4         422.8537  -337.4756  -295.6466 N4            1 RES     
   12779 S2         424.3818  -338.0475  -295.9108 S2            1 RES     
   12780 N4         425.2660  -336.6835  -296.2209 N4            1 RES     
   12781 C1         424.3324  -335.7068  -296.1069 C1            1 RES     
   12782 C1         424.5976  -334.3477  -296.2531 C1            1 RES     
   12783 H5         421.5500  -333.0819  -295.6198 H5            1 RES     
   12784 C0         416.5569  -336.6622  -296.7559 C0            1 RES     
   12785 C0         416.4013  -335.1118  -296.9884 C0            1 RES     
   12786 C0         415.4100  -334.9772  -298.1973 C0            1 RES     
   12787 C0         415.1225  -333.5578  -298.7023 C0            1 RES     
   12788 C0         414.0956  -333.5435  -299.8590 C0            1 RES     
   12789 C0         414.5237  -334.2796  -301.1478 C0            1 RES     
   12790 C0         415.8634  -333.8141  -301.7451 C0            1 RES     
   12791 C0         415.8883  -332.3101  -302.0709 C0            1 RES     
   12792 C0         417.2443  -331.8375  -302.6144 C0            1 RES     
   12793 C0         417.5790  -332.4208  -303.9976 C0            1 RES     
   12794 C0         418.8822  -331.8527  -304.5818 C0            1 RES     
   12795 C0         420.1235  -332.2465  -303.7805 C0            1 RES     
   12796 C0         415.9982  -334.1879  -295.7931 C0            1 RES     
   12797 C0         414.5937  -334.3593  -295.1369 C0            1 RES     
   12798 C0         414.7768  -334.6928  -293.6532 C0            1 RES     
   12799 C0         413.5701  -335.2218  -292.8833 C0            1 RES     
   12800 C0         412.5577  -334.1862  -292.4165 C0            1 RES     
   12801 C0         411.4582  -334.9266  -291.6265 C0            1 RES     
   12802 C0         410.4594  -334.0050  -290.9229 C0            1 RES     
   12803 C0         411.0997  -333.2261  -289.7719 C0            1 RES     
   12804 H6         415.5594  -337.0205  -296.7394 H6            1 RES     
   12805 H6         417.0211  -337.0143  -297.7048 H6            1 RES     
   12806 H6         417.3994  -334.7370  -297.3077 H6            1 RES     
   12807 H6         414.4328  -335.4310  -297.9222 H6            1 RES     
   12808 H6         415.8262  -335.5650  -299.0433 H6            1 RES     
   12809 H6         416.0665  -333.0645  -299.0108 H6            1 RES     
   12810 H6         414.6704  -332.9635  -297.8827 H6            1 RES     
   12811 H6         413.8716  -332.4857  -300.1083 H6            1 RES     
   12812 H6         413.1405  -333.9930  -299.5075 H6            1 RES     
   12813 H6         413.7216  -334.1407  -301.9066 H6            1 RES     
   12814 H6         414.5933  -335.3706  -300.9503 H6            1 RES     
   12815 H6         416.6832  -334.0514  -301.0347 H6            1 RES     
   12816 H6         416.0350  -334.4042  -302.6692 H6            1 RES     
   12817 H6         415.7136  -331.7385  -301.1368 H6            1 RES     
   12818 H6         415.0797  -332.0579  -302.7915 H6            1 RES     
   12819 H6         417.2007  -330.7304  -302.7073 H6            1 RES     
   12820 H6         418.0307  -332.0938  -301.8738 H6            1 RES     
   12821 H6         417.6590  -333.5268  -303.9540 H6            1 RES     
   12822 H6         416.7529  -332.1559  -304.6931 H6            1 RES     
   12823 H6         418.8152  -330.7447  -304.6458 H6            1 RES     
   12824 H6         419.0012  -332.2513  -305.6124 H6            1 RES     
   12825 H6         420.0902  -331.8314  -302.7530 H6            1 RES     
   12826 H6         420.2109  -333.3526  -303.7286 H6            1 RES     
   12827 H6         421.0278  -331.8420  -304.2815 H6            1 RES     
   12828 H6         416.0595  -333.1362  -296.1463 H6            1 RES     
   12829 H6         416.8065  -334.2322  -295.0320 H6            1 RES     
   12830 H6         414.0054  -333.4172  -295.2111 H6            1 RES     
   12831 H6         414.0276  -335.1616  -295.6522 H6            1 RES     
   12832 H6         415.2892  -333.8788  -293.0983 H6            1 RES     
   12833 H6         415.4374  -335.5334  -293.6710 H6            1 RES     
   12834 H6         413.0873  -336.0065  -293.4709 H6            1 RES     
   12835 H6         413.9724  -335.7027  -291.9627 H6            1 RES     
   12836 H6         413.0991  -333.4689  -291.7639 H6            1 RES     
   12837 H6         412.1132  -333.6375  -293.2736 H6            1 RES     
   12838 H6         410.9043  -335.5796  -292.3386 H6            1 RES     
   12839 H6         411.9121  -335.5852  -290.8514 H6            1 RES     
   12840 H6         409.6602  -334.6436  -290.4864 H6            1 RES     
   12841 H6         409.9945  -333.3107  -291.6541 H6            1 RES     
   12842 H6         411.8842  -332.5339  -290.1362 H6            1 RES     
   12843 H6         410.3237  -332.6282  -289.2524 H6            1 RES     
   12844 H6         411.5497  -333.9306  -289.0371 H6            1 RES     
   12845 C0         417.5286  -338.9708  -296.0095 C0            1 RES     
   12846 C0         416.6951  -339.7792  -297.1040 C0            1 RES     
   12847 C0         416.8455  -341.2957  -296.7432 C0            1 RES     
   12848 C0         416.3463  -342.2879  -297.8129 C0            1 RES     
   12849 C0         416.4915  -343.7651  -297.4066 C0            1 RES     
   12850 C0         417.9260  -344.2403  -297.1146 C0            1 RES     
   12851 C0         418.9440  -343.9732  -298.2357 C0            1 RES     
   12852 C0         418.5505  -344.6039  -299.5831 C0            1 RES     
   12853 C0         419.5755  -344.3235  -300.6940 C0            1 RES     
   12854 C0         420.9318  -345.0067  -300.4438 C0            1 RES     
   12855 C0         421.9162  -344.8321  -301.6107 C0            1 RES     
   12856 C0         422.3474  -343.3810  -301.8244 C0            1 RES     
   12857 C0         415.2132  -339.4432  -297.5601 C0            1 RES     
   12858 C0         413.9977  -339.6227  -296.6069 C0            1 RES     
   12859 C0         413.4448  -338.2776  -296.1027 C0            1 RES     
   12860 C0         412.2935  -338.3426  -295.1127 C0            1 RES     
   12861 C0         410.9334  -338.7508  -295.6610 C0            1 RES     
   12862 C0         409.9135  -338.5725  -294.5178 C0            1 RES     
   12863 C0         408.4559  -338.7903  -294.9280 C0            1 RES     
   12864 C0         407.9535  -337.7072  -295.8837 C0            1 RES     
   12865 H6         417.5347  -339.5576  -295.0616 H6            1 RES     
   12866 H6         418.5881  -339.0933  -296.3294 H6            1 RES     
   12867 H6         417.2632  -339.6061  -298.0470 H6            1 RES     
   12868 H6         416.3048  -341.4982  -295.7935 H6            1 RES     
   12869 H6         417.9246  -341.4979  -296.5716 H6            1 RES     
   12870 H6         416.8802  -342.0979  -298.7676 H6            1 RES     
   12871 H6         415.2607  -342.1543  -297.9850 H6            1 RES     
   12872 H6         416.0670  -344.3840  -298.2258 H6            1 RES     
   12873 H6         415.8714  -343.9587  -296.5038 H6            1 RES     
   12874 H6         417.8874  -345.3325  -296.9093 H6            1 RES     
   12875 H6         418.2944  -343.7469  -296.1899 H6            1 RES     
   12876 H6         419.0718  -342.8775  -298.3683 H6            1 RES     
   12877 H6         419.9131  -344.3878  -297.8909 H6            1 RES     
   12878 H6         417.5879  -344.1641  -299.9179 H6            1 RES     
   12879 H6         418.4108  -345.7007  -299.4690 H6            1 RES     
   12880 H6         419.1579  -344.7204  -301.6449 H6            1 RES     
   12881 H6         419.6977  -343.2246  -300.7998 H6            1 RES     
   12882 H6         421.4074  -344.6208  -299.5186 H6            1 RES     
   12883 H6         420.7510  -346.0964  -300.3162 H6            1 RES     
   12884 H6         421.4660  -345.2297  -302.5461 H6            1 RES     
   12885 H6         422.8263  -345.4284  -301.3843 H6            1 RES     
   12886 H6         421.4869  -342.7418  -302.1072 H6            1 RES     
   12887 H6         422.8175  -342.9803  -300.9011 H6            1 RES     
   12888 H6         423.0907  -343.3373  -302.6480 H6            1 RES     
   12889 H6         415.0213  -340.1256  -298.4084 H6            1 RES     
   12890 H6         415.1357  -338.4981  -298.1297 H6            1 RES     
   12891 H6         413.1636  -340.0572  -297.2008 H6            1 RES     
   12892 H6         414.2339  -340.3378  -295.7931 H6            1 RES     
   12893 H6         413.1670  -337.6285  -296.9640 H6            1 RES     
   12894 H6         414.2059  -337.7613  -295.5283 H6            1 RES     
   12895 H6         412.5805  -338.9679  -294.2395 H6            1 RES     
   12896 H6         412.1497  -337.3013  -294.7801 H6            1 RES     
   12897 H6         410.6927  -338.0741  -296.5080 H6            1 RES     
   12898 H6         410.9445  -339.8002  -296.0224 H6            1 RES     
   12899 H6         410.1708  -339.2939  -293.7112 H6            1 RES     
   12900 H6         409.9899  -337.5470  -294.0883 H6            1 RES     
   12901 H6         407.8401  -338.7308  -294.0038 H6            1 RES     
   12902 H6         408.3310  -339.7971  -295.3736 H6            1 RES     
   12903 H6         408.4981  -337.7333  -296.8484 H6            1 RES     
   12904 H6         406.8758  -337.8712  -296.0890 H6            1 RES     
   12905 H6         408.0745  -336.7017  -295.4241 H6            1 RES     
   12906 C0         429.0416  -332.8358  -298.9996 C0            1 RES     
   12907 C1         427.9806  -333.1401  -297.9191 C1            1 RES     
   12908 C1         428.5007  -333.1232  -296.6643 C1            1 RES     
   12909 S2         427.3972  -333.5397  -295.4763 S2            1 RES     
   12910 C1         426.1668  -333.8060  -296.6191 C1            1 RES     
   12911 C1         426.6423  -333.5672  -297.9132 C1            1 RES     
   12912 C1         429.8847  -332.8587  -296.7489 C1            1 RES     
   12913 C1         430.2454  -332.7756  -298.0581 C1            1 RES     
   12914 C1         431.6205  -332.6587  -298.2209 C1            1 RES     
   12915 C1         432.2650  -332.6217  -296.9729 C1            1 RES     
   12916 S2         431.1615  -332.7487  -295.6885 S2            1 RES     
   12917 H3         426.0353  -333.7546  -298.7785 H3            1 RES     
   12918 H3         432.1236  -332.6088  -299.1791 H3            1 RES     
   12919 N4         435.6902  -331.5249  -295.9168 N4            1 RES     
   12920 C1         434.3468  -331.5029  -296.1593 C1            1 RES     
   12921 C1         433.7061  -332.6071  -296.7476 C1            1 RES     
   12922 C1         434.4773  -333.7298  -297.0535 C1            1 RES     
   12923 N4         433.9744  -334.8805  -297.5697 N4            1 RES     
   12924 S2         435.3155  -335.8430  -297.6527 S2            1 RES     
   12925 N4         436.5288  -334.8815  -297.0679 N4            1 RES     
   12926 C1         435.8670  -333.7351  -296.7738 C1            1 RES     
   12927 C1         436.4622  -332.6077  -296.2141 C1            1 RES     
   12928 H5         433.7735  -330.6168  -295.9011 H5            1 RES     
   12929 C0         428.9686  -331.4875  -299.7992 C0            1 RES     
   12930 C0         429.2645  -330.0108  -299.3367 C0            1 RES     
   12931 C0         428.8836  -329.1133  -300.5663 C0            1 RES     
   12932 C0         429.1396  -327.6073  -300.4300 C0            1 RES     
   12933 C0         428.6799  -326.8188  -301.6789 C0            1 RES     
   12934 C0         429.4047  -327.1658  -302.9980 C0            1 RES     
   12935 C0         430.9381  -327.0480  -302.9451 C0            1 RES     
   12936 C0         431.4214  -325.6453  -302.5359 C0            1 RES     
   12937 C0         432.9499  -325.5458  -302.4295 C0            1 RES     
   12938 C0         433.6622  -325.6941  -303.7846 C0            1 RES     
   12939 C0         435.1807  -325.4788  -303.6836 C0            1 RES     
   12940 C0         435.8872  -326.5509  -302.8531 C0            1 RES     
   12941 C0         428.6403  -329.4782  -298.0056 C0            1 RES     
   12942 C0         427.0909  -329.3386  -297.8924 C0            1 RES     
   12943 C0         426.5984  -330.2068  -296.7306 C0            1 RES     
   12944 C0         425.1018  -330.4880  -296.6303 C0            1 RES     
   12945 C0         424.2443  -329.3838  -296.0295 C0            1 RES     
   12946 C0         422.7888  -329.8938  -295.9796 C0            1 RES     
   12947 C0         421.8252  -328.9750  -295.2249 C0            1 RES     
   12948 C0         422.1178  -328.9347  -293.7235 C0            1 RES     
   12949 H6         427.9922  -331.4372  -300.2089 H6            1 RES     
   12950 H6         429.6773  -331.6336  -300.6455 H6            1 RES     
   12951 H6         430.3638  -329.9423  -299.1774 H6            1 RES     
   12952 H6         427.8028  -329.2425  -300.7935 H6            1 RES     
   12953 H6         429.4569  -329.4811  -301.4441 H6            1 RES     
   12954 H6         430.2127  -327.4203  -300.2221 H6            1 RES     
   12955 H6         428.5461  -327.2116  -299.5812 H6            1 RES     
   12956 H6         428.8121  -325.7367  -301.4715 H6            1 RES     
   12957 H6         427.5898  -326.9787  -301.8331 H6            1 RES     
   12958 H6         429.0172  -326.4897  -303.7924 H6            1 RES     
   12959 H6         429.1476  -328.2021  -303.3050 H6            1 RES     
   12960 H6         431.3386  -327.7990  -302.2319 H6            1 RES     
   12961 H6         431.3232  -327.3011  -303.9547 H6            1 RES     
   12962 H6         431.0256  -325.4104  -301.5268 H6            1 RES     
   12963 H6         431.0382  -324.8820  -303.2481 H6            1 RES     
   12964 H6         433.1927  -324.5414  -302.0192 H6            1 RES     
   12965 H6         433.3046  -326.3115  -301.7079 H6            1 RES     
   12966 H6         433.4715  -326.6939  -304.2268 H6            1 RES     
   12967 H6         433.2564  -324.9222  -304.4742 H6            1 RES     
   12968 H6         435.3916  -324.4750  -303.2544 H6            1 RES     
   12969 H6         435.6030  -325.5104  -304.7112 H6            1 RES     
   12970 H6         435.5463  -326.5353  -301.7983 H6            1 RES     
   12971 H6         435.6998  -327.5563  -303.2864 H6            1 RES     
   12972 H6         436.9807  -326.3594  -302.8599 H6            1 RES     
   12973 H6         429.0666  -328.4701  -297.8148 H6            1 RES     
   12974 H6         429.0534  -330.0758  -297.1650 H6            1 RES     
   12975 H6         426.8036  -328.2836  -297.6837 H6            1 RES     
   12976 H6         426.6101  -329.6461  -298.8431 H6            1 RES     
   12977 H6         427.0184  -329.8833  -295.7550 H6            1 RES     
   12978 H6         427.0088  -331.1688  -296.9528 H6            1 RES     
   12979 H6         424.7275  -330.7857  -297.6128 H6            1 RES     
   12980 H6         424.9932  -331.3690  -295.9576 H6            1 RES     
   12981 H6         424.6305  -329.1882  -295.0067 H6            1 RES     
   12982 H6         424.3053  -328.4506  -296.6285 H6            1 RES     
   12983 H6         422.4290  -330.0087  -297.0273 H6            1 RES     
   12984 H6         422.7439  -330.8970  -295.4978 H6            1 RES     
   12985 H6         420.7990  -329.3848  -295.3515 H6            1 RES     
   12986 H6         421.8509  -327.9521  -295.6560 H6            1 RES     
   12987 H6         423.1144  -328.4982  -293.5151 H6            1 RES     
   12988 H6         421.3536  -328.3135  -293.2138 H6            1 RES     
   12989 H6         422.0751  -329.9622  -293.2979 H6            1 RES     
   12990 C0         429.0317  -334.0958  -299.9525 C0            1 RES     
   12991 C0         428.5379  -334.1104  -301.4698 C0            1 RES     
   12992 C0         428.1947  -335.6002  -301.8088 C0            1 RES     
   12993 C0         427.9490  -335.9046  -303.3005 C0            1 RES     
   12994 C0         427.5919  -337.3743  -303.5844 C0            1 RES     
   12995 C0         428.6526  -338.4113  -303.1742 C0            1 RES     
   12996 C0         430.0605  -338.1659  -303.7418 C0            1 RES     
   12997 C0         430.0982  -338.1007  -305.2789 C0            1 RES     
   12998 C0         431.5112  -337.8499  -305.8299 C0            1 RES     
   12999 C0         432.4725  -339.0235  -305.5699 C0            1 RES     
   13000 C0         433.8478  -338.8299  -306.2273 C0            1 RES     
   13001 C0         434.6381  -337.6605  -305.6398 C0            1 RES     
   13002 C0         427.4684  -333.1195  -302.0953 C0            1 RES     
   13003 C0         425.9696  -333.1588  -301.6829 C0            1 RES     
   13004 C0         425.5762  -331.9686  -300.7897 C0            1 RES     
   13005 C0         424.1455  -331.9453  -300.2773 C0            1 RES     
   13006 C0         423.0561  -331.6100  -301.2861 C0            1 RES     
   13007 C0         421.7365  -331.4777  -300.4987 C0            1 RES     
   13008 C0         420.5480  -330.9900  -301.3292 C0            1 RES     
   13009 C0         420.7144  -329.5398  -301.7856 C0            1 RES     
   13010 H6         428.5352  -334.9327  -299.4085 H6            1 RES     
   13011 H6         430.0760  -334.4792  -300.0026 H6            1 RES     
   13012 H6         429.4535  -333.8429  -302.0462 H6            1 RES     
   13013 H6         427.2944  -335.9054  -301.2329 H6            1 RES     
   13014 H6         429.0459  -336.2296  -301.4710 H6            1 RES     
   13015 H6         428.8423  -335.6060  -303.8882 H6            1 RES     
   13016 H6         427.0770  -335.3320  -303.6715 H6            1 RES     
   13017 H6         427.3973  -337.4702  -304.6740 H6            1 RES     
   13018 H6         426.6411  -337.6265  -303.0652 H6            1 RES     
   13019 H6         428.2956  -339.4117  -303.5034 H6            1 RES     
   13020 H6         428.7280  -338.4398  -302.0662 H6            1 RES     
   13021 H6         430.4693  -337.2204  -303.3256 H6            1 RES     
   13022 H6         430.6984  -338.9984  -303.3812 H6            1 RES     
   13023 H6         429.4676  -337.2524  -305.6178 H6            1 RES     
   13024 H6         429.6856  -339.0364  -305.7144 H6            1 RES     
   13025 H6         431.4235  -337.7111  -306.9295 H6            1 RES     
   13026 H6         431.9053  -336.9088  -305.3908 H6            1 RES     
   13027 H6         432.6195  -339.1843  -304.4820 H6            1 RES     
   13028 H6         432.0196  -339.9427  -306.0016 H6            1 RES     
   13029 H6         433.7249  -338.6850  -307.3226 H6            1 RES     
   13030 H6         434.4393  -339.7567  -306.0653 H6            1 RES     
   13031 H6         434.1225  -336.6952  -305.8174 H6            1 RES     
   13032 H6         434.7843  -337.8058  -304.5482 H6            1 RES     
   13033 H6         435.6345  -337.6102  -306.1271 H6            1 RES     
   13034 H6         427.4788  -333.3454  -303.1774 H6            1 RES     
   13035 H6         427.8321  -332.0777  -302.1736 H6            1 RES     
   13036 H6         425.3618  -333.0232  -302.6045 H6            1 RES     
   13037 H6         425.7027  -334.1445  -301.2509 H6            1 RES     
   13038 H6         425.8099  -331.0083  -301.3030 H6            1 RES     
   13039 H6         426.1446  -332.0001  -299.8669 H6            1 RES     
   13040 H6         423.9205  -332.8925  -299.7406 H6            1 RES     
   13041 H6         424.1174  -331.1081  -299.5605 H6            1 RES     
   13042 H6         423.3234  -330.6445  -301.7651 H6            1 RES     
   13043 H6         422.9752  -332.3957  -302.0660 H6            1 RES     
   13044 H6         421.4898  -332.4740  -300.0701 H6            1 RES     
   13045 H6         421.8634  -330.7683  -299.6486 H6            1 RES     
   13046 H6         419.6487  -331.0325  -300.6761 H6            1 RES     
   13047 H6         420.3883  -331.6599  -302.1973 H6            1 RES     
   13048 H6         421.5733  -329.4284  -302.4768 H6            1 RES     
   13049 H6         419.7965  -329.2157  -302.3176 H6            1 RES     
   13050 H6         420.8648  -328.8745  -300.9072 H6            1 RES     
   13051 C0         441.8421  -331.9802  -296.7051 C0            1 RES     
   13052 C1         440.4035  -332.2279  -296.2001 C1            1 RES     
   13053 C1         440.3792  -332.8377  -294.9865 C1            1 RES     
   13054 S2         438.8357  -333.2040  -294.4519 S2            1 RES     
   13055 C1         438.1267  -332.5881  -295.8692 C1            1 RES     
   13056 C1         439.1118  -332.1086  -296.7395 C1            1 RES     
   13057 C1         441.7066  -333.0870  -294.5759 C1            1 RES     
   13058 C1         442.5606  -332.6947  -295.5595 C1            1 RES     
   13059 C1         443.8781  -333.0412  -295.2846 C1            1 RES     
   13060 C1         443.9719  -333.6769  -294.0351 C1            1 RES     
   13061 S2         442.4547  -333.8263  -293.2873 S2            1 RES     
   13062 H3         438.8680  -331.7489  -297.7210 H3            1 RES     
   13063 H3         444.7142  -332.8511  -295.9468 H3            1 RES     
   13064 N4         446.8583  -334.3494  -291.7401 N4            1 RES     
   13065 C1         445.7590  -333.7544  -292.2893 C1            1 RES     
   13066 C1         445.1732  -334.2701  -293.4584 C1            1 RES     
   13067 C1         445.7330  -335.4167  -294.0247 C1            1 RES     
   13068 N4         445.2317  -336.0481  -295.1172 N4            1 RES     
   13069 S2         446.2482  -337.3421  -295.2716 S2            1 RES     
   13070 N4         447.3149  -337.1582  -294.0199 N4            1 RES     
   13071 C1         446.8627  -336.0272  -293.4242 C1            1 RES     
   13072 C1         447.4242  -335.4648  -292.2808 C1            1 RES     
   13073 H5         445.3423  -332.8681  -291.8187 H5            1 RES     
   13074 C0         442.3894  -330.5122  -296.7957 C0            1 RES     
   13075 C0         442.7992  -329.5049  -295.6559 C0            1 RES     
   13076 C0         443.1405  -328.1649  -296.3978 C0            1 RES     
   13077 C0         443.6492  -327.0048  -295.5331 C0            1 RES     
   13078 C0         443.9036  -325.7235  -296.3614 C0            1 RES     
   13079 C0         444.9914  -325.8327  -297.4526 C0            1 RES     
   13080 C0         446.3656  -326.3110  -296.9520 C0            1 RES     
   13081 C0         446.9473  -325.4178  -295.8417 C0            1 RES     
   13082 C0         448.2921  -325.9287  -295.3051 C0            1 RES     
   13083 C0         449.4268  -325.8492  -296.3403 C0            1 RES     
   13084 C0         450.7905  -326.2544  -295.7585 C0            1 RES     
   13085 C0         450.8578  -327.7265  -295.3502 C0            1 RES     
   13086 C0         441.8377  -329.2764  -294.4441 C0            1 RES     
   13087 C0         440.4411  -328.6273  -294.6909 C0            1 RES     
   13088 C0         439.3532  -329.5985  -294.2227 C0            1 RES     
   13089 C0         437.9155  -329.3278  -294.6570 C0            1 RES     
   13090 C0         437.1589  -328.2675  -293.8703 C0            1 RES     
   13091 C0         435.7269  -328.1921  -294.4404 C0            1 RES     
   13092 C0         434.7742  -327.3063  -293.6342 C0            1 RES     
   13093 C0         434.4551  -327.8979  -292.2596 C0            1 RES     
   13094 H6         441.6897  -329.9694  -297.3784 H6            1 RES     
   13095 H6         443.3218  -330.6055  -297.3972 H6            1 RES     
   13096 H6         443.7333  -329.9035  -295.2007 H6            1 RES     
   13097 H6         442.2362  -327.8020  -296.9334 H6            1 RES     
   13098 H6         443.9153  -328.3891  -297.1620 H6            1 RES     
   13099 H6         444.5671  -327.3084  -294.9897 H6            1 RES     
   13100 H6         442.8740  -326.7391  -294.7863 H6            1 RES     
   13101 H6         444.1800  -324.9089  -295.6605 H6            1 RES     
   13102 H6         442.9555  -325.4089  -296.8512 H6            1 RES     
   13103 H6         445.1069  -324.8320  -297.9255 H6            1 RES     
   13104 H6         444.6527  -326.5276  -298.2506 H6            1 RES     
   13105 H6         446.2769  -327.3530  -296.5787 H6            1 RES     
   13106 H6         447.0495  -326.3216  -297.8260 H6            1 RES     
   13107 H6         446.2500  -325.4188  -294.9793 H6            1 RES     
   13108 H6         447.0537  -324.3718  -296.2040 H6            1 RES     
   13109 H6         448.5704  -325.2918  -294.4373 H6            1 RES     
   13110 H6         448.1560  -326.9695  -294.9434 H6            1 RES     
   13111 H6         449.2086  -326.4901  -297.2195 H6            1 RES     
   13112 H6         449.5062  -324.7952  -296.6854 H6            1 RES     
   13113 H6         451.0327  -325.6129  -294.8832 H6            1 RES     
   13114 H6         451.5637  -326.0812  -296.5378 H6            1 RES     
   13115 H6         450.1430  -327.9529  -294.5336 H6            1 RES     
   13116 H6         450.6378  -328.3765  -296.2236 H6            1 RES     
   13117 H6         451.8791  -327.9594  -294.9825 H6            1 RES     
   13118 H6         442.3667  -328.6277  -293.7136 H6            1 RES     
   13119 H6         441.7442  -330.2346  -293.8896 H6            1 RES     
   13120 H6         440.3364  -327.6828  -294.1112 H6            1 RES     
   13121 H6         440.3167  -328.3880  -295.7665 H6            1 RES     
   13122 H6         439.4170  -329.8103  -293.1345 H6            1 RES     
   13123 H6         439.5936  -330.5031  -294.7396 H6            1 RES     
   13124 H6         437.9009  -329.1082  -295.7274 H6            1 RES     
   13125 H6         437.3594  -330.2817  -294.5107 H6            1 RES     
   13126 H6         437.1456  -328.5937  -292.8088 H6            1 RES     
   13127 H6         437.6551  -327.2767  -293.9427 H6            1 RES     
   13128 H6         435.7914  -327.7973  -295.4798 H6            1 RES     
   13129 H6         435.2755  -329.2089  -294.4954 H6            1 RES     
   13130 H6         433.8169  -327.2406  -294.1968 H6            1 RES     
   13131 H6         435.1929  -326.2831  -293.5322 H6            1 RES     
   13132 H6         435.3598  -327.9580  -291.6230 H6            1 RES     
   13133 H6         433.7106  -327.2575  -291.7446 H6            1 RES     
   13134 H6         434.0224  -328.9170  -292.3728 H6            1 RES     
   13135 C0         441.9280  -332.7355  -298.0899 C0            1 RES     
   13136 C0         442.0793  -332.0426  -299.5193 C0            1 RES     
   13137 C0         441.5759  -333.0866  -300.5724 C0            1 RES     
   13138 C0         441.8744  -332.7438  -302.0459 C0            1 RES     
   13139 C0         441.3413  -333.7844  -303.0466 C0            1 RES     
   13140 C0         441.8976  -335.2107  -302.8878 C0            1 RES     
   13141 C0         443.4315  -335.3181  -302.8912 C0            1 RES     
   13142 C0         444.0827  -334.7442  -304.1619 C0            1 RES     
   13143 C0         445.6159  -334.8547  -304.1474 C0            1 RES     
   13144 C0         446.1120  -336.3106  -304.2046 C0            1 RES     
   13145 C0         447.6407  -336.4199  -304.3164 C0            1 RES     
   13146 C0         448.3748  -335.9024  -303.0793 C0            1 RES     
   13147 C0         441.5895  -330.5785  -299.8848 C0            1 RES     
   13148 C0         440.0810  -330.2059  -299.9443 C0            1 RES     
   13149 C0         439.6429  -329.3425  -298.7476 C0            1 RES     
   13150 C0         438.1699  -328.9754  -298.6757 C0            1 RES     
   13151 C0         437.6674  -327.9378  -299.6697 C0            1 RES     
   13152 C0         436.2097  -327.6123  -299.2848 C0            1 RES     
   13153 C0         435.5827  -326.4684  -300.0839 C0            1 RES     
   13154 C0         436.2316  -325.1189  -299.7732 C0            1 RES     
   13155 H6         441.0859  -333.4647  -298.1351 H6            1 RES     
   13156 H6         442.7949  -333.4320  -298.0321 H6            1 RES     
   13157 H6         443.1821  -331.9476  -299.6494 H6            1 RES     
   13158 H6         440.4786  -333.2196  -300.4557 H6            1 RES     
   13159 H6         442.0638  -334.0589  -300.3458 H6            1 RES     
   13160 H6         442.9686  -332.6099  -302.1774 H6            1 RES     
   13161 H6         441.3683  -331.8014  -302.3319 H6            1 RES     
   13162 H6         441.5739  -333.4192  -304.0697 H6            1 RES     
   13163 H6         440.2330  -333.8335  -302.9676 H6            1 RES     
   13164 H6         441.4864  -335.8302  -303.7146 H6            1 RES     
   13165 H6         441.5238  -335.6460  -301.9365 H6            1 RES     
   13166 H6         443.8427  -334.7951  -302.0014 H6            1 RES     
   13167 H6         443.6751  -336.3957  -302.7931 H6            1 RES     
   13168 H6         443.8407  -333.6632  -304.2324 H6            1 RES     
   13169 H6         443.6780  -335.2508  -305.0647 H6            1 RES     
   13170 H6         445.9999  -334.3224  -305.0449 H6            1 RES     
   13171 H6         446.0039  -334.3379  -303.2440 H6            1 RES     
   13172 H6         445.7808  -336.8795  -303.3115 H6            1 RES     
   13173 H6         445.6735  -336.7895  -305.1072 H6            1 RES     
   13174 H6         447.9928  -335.8710  -305.2167 H6            1 RES     
   13175 H6         447.8998  -337.4932  -304.4425 H6            1 RES     
   13176 H6         448.1980  -334.8182  -302.9293 H6            1 RES     
   13177 H6         448.0448  -336.4588  -302.1763 H6            1 RES     
   13178 H6         449.4666  -336.0555  -303.2105 H6            1 RES     
   13179 H6         441.9734  -330.4033  -300.9065 H6            1 RES     
   13180 H6         442.1757  -329.7848  -299.3847 H6            1 RES     
   13181 H6         439.9300  -329.5475  -300.8279 H6            1 RES     
   13182 H6         439.4548  -331.1090  -300.0920 H6            1 RES     
   13183 H6         440.2658  -328.4211  -298.6894 H6            1 RES     
   13184 H6         439.7814  -329.8970  -297.8262 H6            1 RES     
   13185 H6         437.5486  -329.8968  -298.7059 H6            1 RES     
   13186 H6         438.0490  -328.4897  -297.6934 H6            1 RES     
   13187 H6         438.3080  -327.0360  -299.5710 H6            1 RES     
   13188 H6         437.7272  -328.3172  -300.7111 H6            1 RES     
   13189 H6         435.6006  -328.5308  -299.4350 H6            1 RES     
   13190 H6         436.1466  -327.3399  -298.2060 H6            1 RES     
   13191 H6         434.5142  -326.4016  -299.7825 H6            1 RES     
   13192 H6         435.6323  -326.6885  -301.1688 H6            1 RES     
   13193 H6         437.2943  -325.0983  -300.0866 H6            1 RES     
   13194 H6         435.6927  -324.3187  -300.3208 H6            1 RES     
   13195 H6         436.1687  -324.9029  -298.6840 H6            1 RES     
   13196 C0         452.5586  -336.7239  -291.0040 C0            1 RES     
   13197 C1         451.0214  -336.5855  -291.0631 C1            1 RES     
   13198 C1         450.3884  -337.5229  -290.3110 C1            1 RES     
   13199 S2         448.7195  -337.4588  -290.4259 S2            1 RES     
   13200 C1         448.7792  -336.1770  -291.5414 C1            1 RES     
   13201 C1         450.1063  -335.8227  -291.8077 C1            1 RES     
   13202 C1         451.3570  -338.3666  -289.7255 C1            1 RES     
   13203 C1         452.5923  -338.0005  -290.1624 C1            1 RES     
   13204 C1         453.5838  -338.8775  -289.7392 C1            1 RES     
   13205 C1         453.0364  -339.8931  -288.9372 C1            1 RES     
   13206 S2         451.3555  -339.7249  -288.7654 S2            1 RES     
   13207 H3         450.3535  -335.0833  -292.5456 H3            1 RES     
   13208 H3         454.6322  -338.7907  -289.9982 H3            1 RES     
   13209 N4         454.5637  -342.3250  -286.5281 N4            1 RES     
   13210 C1         453.9296  -341.2184  -287.0154 C1            1 RES     
   13211 C1         453.7511  -341.0451  -288.3988 C1            1 RES     
   13212 C1         454.2191  -342.0448  -289.2534 C1            1 RES     
   13213 N4         454.0603  -342.0288  -290.6017 N4            1 RES     
   13214 S2         454.7417  -343.4657  -291.0521 S2            1 RES     
   13215 N4         455.2435  -344.1304  -289.6222 N4            1 RES     
   13216 C1         454.8566  -343.1936  -288.7213 C1            1 RES     
   13217 C1         455.0339  -343.3089  -287.3451 C1            1 RES     
   13218 H5         453.5693  -340.4628  -286.3226 H5            1 RES     
   13219 C0         453.4081  -335.6250  -290.2736 C0            1 RES     
   13220 C0         453.5499  -335.2991  -288.7388 C0            1 RES     
   13221 C0         454.4425  -334.0101  -288.6754 C0            1 RES     
   13222 C0         454.8143  -333.4933  -287.2801 C0            1 RES     
   13223 C0         455.6504  -332.1931  -287.3396 C0            1 RES     
   13224 C0         457.0254  -332.3087  -288.0338 C0            1 RES     
   13225 C0         457.9498  -333.3985  -287.4629 C0            1 RES     
   13226 C0         458.2313  -333.2239  -285.9599 C0            1 RES     
   13227 C0         459.1081  -334.3434  -285.3808 C0            1 RES     
   13228 C0         460.5449  -334.3325  -285.9295 C0            1 RES     
   13229 C0         461.4443  -335.3834  -285.2592 C0            1 RES     
   13230 C0         461.0180  -336.8208  -285.5595 C0            1 RES     
   13231 C0         452.2666  -335.1684  -287.8548 C0            1 RES     
   13232 C0         451.2604  -334.0107  -288.1379 C0            1 RES     
   13233 C0         449.8903  -334.6130  -288.4636 C0            1 RES     
   13234 C0         448.8373  -333.7023  -289.0885 C0            1 RES     
   13235 C0         448.0881  -332.7812  -288.1368 C0            1 RES     
   13236 C0         447.0501  -331.9943  -288.9643 C0            1 RES     
   13237 C0         446.0795  -331.1588  -288.1264 C0            1 RES     
   13238 C0         445.1243  -332.0282  -287.3060 C0            1 RES     
   13239 H6         453.1323  -334.6983  -290.7082 H6            1 RES     
   13240 H6         454.4558  -335.8392  -290.5839 H6            1 RES     
   13241 H6         454.1168  -336.1430  -288.2861 H6            1 RES     
   13242 H6         453.9257  -333.1800  -289.2050 H6            1 RES     
   13243 H6         455.3843  -334.2233  -289.2249 H6            1 RES     
   13244 H6         455.3533  -334.2796  -286.7135 H6            1 RES     
   13245 H6         453.8882  -333.2379  -286.7267 H6            1 RES     
   13246 H6         455.8025  -331.8331  -286.3011 H6            1 RES     
   13247 H6         455.0659  -331.4047  -287.8635 H6            1 RES     
   13248 H6         457.5358  -331.3231  -287.9538 H6            1 RES     
   13249 H6         456.8822  -332.5090  -289.1172 H6            1 RES     
   13250 H6         457.4933  -334.3952  -287.6395 H6            1 RES     
   13251 H6         458.9009  -333.3560  -288.0333 H6            1 RES     
   13252 H6         457.2703  -333.2675  -285.4082 H6            1 RES     
   13253 H6         458.7002  -332.2340  -285.7676 H6            1 RES     
   13254 H6         459.1572  -334.1953  -284.2799 H6            1 RES     
   13255 H6         458.6141  -335.3177  -285.5791 H6            1 RES     
   13256 H6         460.5531  -334.5022  -287.0261 H6            1 RES     
   13257 H6         460.9847  -333.3318  -285.7260 H6            1 RES     
   13258 H6         461.4592  -335.2206  -284.1593 H6            1 RES     
   13259 H6         462.4787  -335.2475  -285.6422 H6            1 RES     
   13260 H6         460.0093  -337.0369  -285.1534 H6            1 RES     
   13261 H6         461.0202  -336.9998  -286.6558 H6            1 RES     
   13262 H6         461.7338  -337.5233  -285.0836 H6            1 RES     
   13263 H6         452.5960  -335.0544  -286.7999 H6            1 RES     
   13264 H6         451.7533  -336.1536  -287.8402 H6            1 RES     
   13265 H6         451.1488  -333.3569  -287.2439 H6            1 RES     
   13266 H6         451.6245  -333.3865  -288.9791 H6            1 RES     
   13267 H6         449.4735  -335.1955  -287.6152 H6            1 RES     
   13268 H6         450.1074  -335.3038  -289.2504 H6            1 RES     
   13269 H6         449.2929  -333.1371  -289.9053 H6            1 RES     
   13270 H6         448.0721  -334.3731  -289.5413 H6            1 RES     
   13271 H6         447.5875  -333.4251  -287.3831 H6            1 RES     
   13272 H6         448.7790  -332.0820  -287.6201 H6            1 RES     
   13273 H6         447.6030  -331.3175  -289.6547 H6            1 RES     
   13274 H6         446.4435  -332.6882  -289.5896 H6            1 RES     
   13275 H6         445.4602  -330.5568  -288.8272 H6            1 RES     
   13276 H6         446.6400  -330.4636  -287.4666 H6            1 RES     
   13277 H6         445.6688  -332.6317  -286.5532 H6            1 RES     
   13278 H6         444.3994  -331.3803  -286.7727 H6            1 RES     
   13279 H6         444.5566  -332.7109  -287.9771 H6            1 RES     
   13280 C0         453.0114  -336.9291  -292.5036 C0            1 RES     
   13281 C0         453.8608  -335.8917  -293.3687 C0            1 RES     
   13282 C0         453.5933  -336.2450  -294.8707 C0            1 RES     
   13283 C0         454.5139  -335.5487  -295.8933 C0            1 RES     
   13284 C0         454.2002  -335.9064  -297.3568 C0            1 RES     
   13285 C0         454.3184  -337.3972  -297.7208 C0            1 RES     
   13286 C0         455.6653  -338.0508  -297.3699 C0            1 RES     
   13287 C0         456.8724  -337.3543  -298.0225 C0            1 RES     
   13288 C0         458.2110  -338.0164  -297.6579 C0            1 RES     
   13289 C0         458.3537  -339.4361  -298.2351 C0            1 RES     
   13290 C0         459.7381  -340.0518  -297.9789 C0            1 RES     
   13291 C0         460.0226  -340.3015  -296.4977 C0            1 RES     
   13292 C0         453.8913  -334.3212  -293.1464 C0            1 RES     
   13293 C0         452.6505  -333.4261  -293.4243 C0            1 RES     
   13294 C0         451.9813  -332.9335  -292.1286 C0            1 RES     
   13295 C0         450.7194  -332.1016  -292.2877 C0            1 RES     
   13296 C0         450.8907  -330.6775  -292.7974 C0            1 RES     
   13297 C0         449.5105  -329.9953  -292.7044 C0            1 RES     
   13298 C0         449.5177  -328.5012  -293.0326 C0            1 RES     
   13299 C0         450.2741  -327.6805  -291.9869 C0            1 RES     
   13300 H6         452.1158  -337.2348  -293.0929 H6            1 RES     
   13301 H6         453.6083  -337.8683  -292.5420 H6            1 RES     
   13302 H6         454.9174  -336.1687  -293.1473 H6            1 RES     
   13303 H6         452.5385  -335.9982  -295.1193 H6            1 RES     
   13304 H6         453.7246  -337.3421  -294.9895 H6            1 RES     
   13305 H6         455.5720  -335.7885  -295.6577 H6            1 RES     
   13306 H6         454.3832  -334.4504  -295.8434 H6            1 RES     
   13307 H6         454.8901  -335.3224  -298.0026 H6            1 RES     
   13308 H6         453.1688  -335.5701  -297.6024 H6            1 RES     
   13309 H6         454.1385  -337.4958  -298.8137 H6            1 RES     
   13310 H6         453.5150  -337.9652  -297.2050 H6            1 RES     
   13311 H6         455.7991  -338.0573  -296.2670 H6            1 RES     
   13312 H6         455.6056  -339.1048  -297.7099 H6            1 RES     
   13313 H6         456.9235  -336.3074  -297.6570 H6            1 RES     
   13314 H6         456.7532  -337.3315  -299.1274 H6            1 RES     
   13315 H6         459.0238  -337.3870  -298.0813 H6            1 RES     
   13316 H6         458.3174  -338.0245  -296.5523 H6            1 RES     
   13317 H6         457.5816  -340.1150  -297.8182 H6            1 RES     
   13318 H6         458.2103  -339.3770  -299.3362 H6            1 RES     
   13319 H6         460.5273  -339.3954  -298.4055 H6            1 RES     
   13320 H6         459.7811  -341.0304  -298.5039 H6            1 RES     
   13321 H6         460.0462  -339.3521  -295.9257 H6            1 RES     
   13322 H6         459.2504  -340.9735  -296.0664 H6            1 RES     
   13323 H6         461.0149  -340.7884  -296.3924 H6            1 RES     
   13324 H6         454.6738  -333.9572  -293.8373 H6            1 RES     
   13325 H6         454.3943  -334.0232  -292.2073 H6            1 RES     
   13326 H6         453.0084  -332.4964  -293.9192 H6            1 RES     
   13327 H6         451.9494  -333.9257  -294.1230 H6            1 RES     
   13328 H6         452.7186  -332.3858  -291.4987 H6            1 RES     
   13329 H6         451.6205  -333.7818  -291.5578 H6            1 RES     
   13330 H6         449.9724  -332.6595  -292.8932 H6            1 RES     
   13331 H6         450.3336  -331.9774  -291.2624 H6            1 RES     
   13332 H6         451.6236  -330.1673  -292.1372 H6            1 RES     
   13333 H6         451.2686  -330.6671  -293.8409 H6            1 RES     
   13334 H6         448.8221  -330.5137  -293.4077 H6            1 RES     
   13335 H6         449.0912  -330.1099  -291.6783 H6            1 RES     
   13336 H6         448.4604  -328.1562  -293.0256 H6            1 RES     
   13337 H6         449.9389  -328.3343  -294.0437 H6            1 RES     
   13338 H6         451.3503  -327.9437  -291.9659 H6            1 RES     
   13339 H6         450.1851  -326.6025  -292.2330 H6            1 RES     
   13340 H6         449.8383  -327.8475  -290.9773 H6            1 RES     
   13341 C0         458.8376  -346.7191  -285.4794 C0            1 RES     
   13342 C1         457.5191  -346.0159  -285.8705 C1            1 RES     
   13343 C1         456.4512  -346.8539  -285.8196 C1            1 RES     
   13344 S2         455.0207  -346.1473  -286.3264 S2            1 RES     
   13345 C1         455.7956  -344.6762  -286.6815 C1            1 RES     
   13346 C1         457.1634  -344.7643  -286.4001 C1            1 RES     
   13347 C1         456.8993  -348.1400  -285.4481 C1            1 RES     
   13348 C1         458.2546  -348.1252  -285.3307 C1            1 RES     
   13349 C1         458.7793  -349.3924  -285.1068 C1            1 RES     
   13350 C1         457.7510  -350.3464  -285.0262 C1            1 RES     
   13351 S2         456.2202  -349.6447  -285.2447 S2            1 RES     
   13352 H3         457.8374  -343.9610  -286.6297 H3            1 RES     
   13353 H3         459.8362  -349.6119  -285.0132 H3            1 RES     
   13354 N4         457.6303  -353.8397  -283.6724 N4            1 RES     
   13355 C1         457.5007  -352.4830  -283.7534 C1            1 RES     
   13356 C1         457.9226  -351.7895  -284.9010 C1            1 RES     
   13357 C1         458.4542  -352.5292  -285.9590 C1            1 RES     
   13358 N4         458.8450  -351.9909  -287.1426 N4            1 RES     
   13359 S2         459.3116  -353.3261  -287.9978 S2            1 RES     
   13360 N4         459.0513  -354.5786  -286.9480 N4            1 RES     
   13361 C1         458.5600  -353.9391  -285.8579 C1            1 RES     
   13362 C1         458.1527  -354.5794  -284.6905 C1            1 RES     
   13363 H5         457.0746  -351.9378  -282.9156 H5            1 RES     
   13364 C0         459.5528  -346.3335  -284.1368 C0            1 RES     
   13365 C0         459.1493  -346.6346  -282.6440 C0            1 RES     
   13366 C0         460.2070  -345.8700  -281.7726 C0            1 RES     
   13367 C0         460.1059  -346.0423  -280.2520 C0            1 RES     
   13368 C0         461.1637  -345.2049  -279.4952 C0            1 RES     
   13369 C0         462.6379  -345.5684  -279.7784 C0            1 RES     
   13370 C0         462.9977  -347.0459  -279.5423 C0            1 RES     
   13371 C0         462.6980  -347.5179  -278.1084 C0            1 RES     
   13372 C0         463.0055  -349.0064  -277.8913 C0            1 RES     
   13373 C0         464.5058  -349.3337  -277.9771 C0            1 RES     
   13374 C0         464.8128  -350.8027  -277.6452 C0            1 RES     
   13375 C0         464.2317  -351.7844  -278.6634 C0            1 RES     
   13376 C0         457.6859  -346.3572  -282.1681 C0            1 RES     
   13377 C0         457.1552  -344.8907  -282.1496 C0            1 RES     
   13378 C0         455.9264  -344.7964  -283.0592 C0            1 RES     
   13379 C0         455.4334  -343.4078  -283.4560 C0            1 RES     
   13380 C0         454.5952  -342.6667  -282.4247 C0            1 RES     
   13381 C0         454.1676  -341.3205  -283.0462 C0            1 RES     
   13382 C0         453.1574  -340.5330  -282.2087 C0            1 RES     
   13383 C0         451.7901  -341.2177  -282.1534 C0            1 RES     
   13384 H6         459.6824  -345.2817  -284.1604 H6            1 RES     
   13385 H6         460.5624  -346.7951  -284.2233 H6            1 RES     
   13386 H6         459.2908  -347.7278  -282.4912 H6            1 RES     
   13387 H6         460.1373  -344.7806  -281.9840 H6            1 RES     
   13388 H6         461.2161  -346.2093  -282.0904 H6            1 RES     
   13389 H6         460.1905  -347.1149  -279.9834 H6            1 RES     
   13390 H6         459.1185  -345.6737  -279.9077 H6            1 RES     
   13391 H6         460.9718  -345.3086  -278.4072 H6            1 RES     
   13392 H6         461.0221  -344.1284  -279.7384 H6            1 RES     
   13393 H6         463.2806  -344.9316  -279.1304 H6            1 RES     
   13394 H6         462.8908  -345.3144  -280.8300 H6            1 RES     
   13395 H6         462.4386  -347.6786  -280.2635 H6            1 RES     
   13396 H6         464.0800  -347.1604  -279.7597 H6            1 RES     
   13397 H6         461.6139  -347.3942  -277.9100 H6            1 RES     
   13398 H6         463.2604  -346.9011  -277.3736 H6            1 RES     
   13399 H6         462.6501  -349.2770  -276.8731 H6            1 RES     
   13400 H6         462.4263  -349.5985  -278.6307 H6            1 RES     
   13401 H6         464.9058  -349.1041  -278.9864 H6            1 RES     
   13402 H6         465.0402  -348.7007  -277.2355 H6            1 RES     
   13403 H6         464.4307  -351.0478  -276.6302 H6            1 RES     
   13404 H6         465.9167  -350.9319  -277.6388 H6            1 RES     
   13405 H6         463.1240  -351.7419  -278.6796 H6            1 RES     
   13406 H6         464.6242  -351.5608  -279.6781 H6            1 RES     
   13407 H6         464.5284  -352.8181  -278.3877 H6            1 RES     
   13408 H6         457.5912  -346.7442  -281.1309 H6            1 RES     
   13409 H6         457.0036  -347.0253  -282.7361 H6            1 RES     
   13410 H6         456.8496  -344.5941  -281.1211 H6            1 RES     
   13411 H6         457.9485  -344.1940  -282.4887 H6            1 RES     
   13412 H6         455.0923  -345.4402  -282.7089 H6            1 RES     
   13413 H6         456.2759  -345.2006  -283.9853 H6            1 RES     
   13414 H6         456.2858  -342.8041  -283.7770 H6            1 RES     
   13415 H6         454.7793  -343.5504  -284.3462 H6            1 RES     
   13416 H6         453.7098  -343.3001  -282.2049 H6            1 RES     
   13417 H6         455.1641  -342.4945  -281.4866 H6            1 RES     
   13418 H6         455.0819  -340.6998  -283.1835 H6            1 RES     
   13419 H6         453.7176  -341.4816  -284.0523 H6            1 RES     
   13420 H6         453.0129  -339.5437  -282.6962 H6            1 RES     
   13421 H6         453.5529  -340.3658  -281.1848 H6            1 RES     
   13422 H6         451.8471  -342.1987  -281.6420 H6            1 RES     
   13423 H6         451.0773  -340.5768  -281.5959 H6            1 RES     
   13424 H6         451.3954  -341.3674  -283.1833 H6            1 RES     
   13425 C0         459.7847  -346.5437  -286.7316 C0            1 RES     
   13426 C0         461.1123  -345.6596  -286.7768 C0            1 RES     
   13427 C0         461.3845  -345.3475  -288.2871 C0            1 RES     
   13428 C0         462.7619  -344.7297  -288.6021 C0            1 RES     
   13429 C0         462.9768  -344.4177  -290.0937 C0            1 RES     
   13430 C0         462.8949  -345.6230  -291.0474 C0            1 RES     
   13431 C0         463.8149  -346.8024  -290.6906 C0            1 RES     
   13432 C0         465.3028  -346.4173  -290.6151 C0            1 RES     
   13433 C0         466.2081  -347.6058  -290.2527 C0            1 RES     
   13434 C0         466.2474  -348.6849  -291.3495 C0            1 RES     
   13435 C0         467.2463  -349.8125  -291.0465 C0            1 RES     
   13436 C0         466.8638  -350.6446  -289.8223 C0            1 RES     
   13437 C0         461.4003  -344.3910  -285.8688 C0            1 RES     
   13438 C0         460.5999  -343.0671  -286.0262 C0            1 RES     
   13439 C0         459.6032  -342.8443  -284.8746 C0            1 RES     
   13440 C0         458.7234  -341.6084  -284.9649 C0            1 RES     
   13441 C0         459.3919  -340.2648  -284.7100 C0            1 RES     
   13442 C0         458.2744  -339.2019  -284.6843 C0            1 RES     
   13443 C0         458.7406  -337.8004  -284.2861 C0            1 RES     
   13444 C0         459.1874  -337.7302  -282.8251 C0            1 RES     
   13445 H6         459.1487  -346.2759  -287.6072 H6            1 RES     
   13446 H6         460.1246  -347.5605  -287.0326 H6            1 RES     
   13447 H6         461.9073  -346.3625  -286.4362 H6            1 RES     
   13448 H6         460.5951  -344.6619  -288.6640 H6            1 RES     
   13449 H6         461.3053  -346.3022  -288.8502 H6            1 RES     
   13450 H6         463.5609  -345.4059  -288.2322 H6            1 RES     
   13451 H6         462.8690  -343.7503  -288.0970 H6            1 RES     
   13452 H6         463.9756  -343.9427  -290.1989 H6            1 RES     
   13453 H6         462.2270  -343.6644  -290.4215 H6            1 RES     
   13454 H6         463.1413  -345.2644  -292.0707 H6            1 RES     
   13455 H6         461.8494  -345.9977  -291.0755 H6            1 RES     
   13456 H6         463.5001  -347.2383  -289.7184 H6            1 RES     
   13457 H6         463.6614  -347.5735  -291.4730 H6            1 RES     
   13458 H6         465.4370  -345.6581  -289.8165 H6            1 RES     
   13459 H6         465.6349  -345.9719  -291.5777 H6            1 RES     
   13460 H6         467.2393  -347.2134  -290.1155 H6            1 RES     
   13461 H6         465.8674  -348.0340  -289.2861 H6            1 RES     
   13462 H6         465.2441  -349.1326  -291.5038 H6            1 RES     
   13463 H6         466.5645  -348.2005  -292.2989 H6            1 RES     
   13464 H6         468.2637  -349.3871  -290.9061 H6            1 RES     
   13465 H6         467.2739  -350.4921  -291.9254 H6            1 RES     
   13466 H6         466.8708  -350.0308  -288.8991 H6            1 RES     
   13467 H6         465.8563  -351.0913  -289.9613 H6            1 RES     
   13468 H6         467.6004  -351.4651  -289.6925 H6            1 RES     
   13469 H6         462.4505  -344.1243  -286.0877 H6            1 RES     
   13470 H6         461.5469  -344.6425  -284.8015 H6            1 RES     
   13471 H6         461.3195  -342.2240  -285.9336 H6            1 RES     
   13472 H6         460.1375  -343.0002  -287.0318 H6            1 RES     
   13473 H6         460.1356  -342.8592  -283.8965 H6            1 RES     
   13474 H6         458.8692  -343.6423  -284.8665 H6            1 RES     
   13475 H6         458.1706  -341.6073  -285.9294 H6            1 RES     
   13476 H6         458.0042  -341.7143  -284.1360 H6            1 RES     
   13477 H6         459.9001  -340.3208  -283.7243 H6            1 RES     
   13478 H6         460.1410  -340.0334  -285.4957 H6            1 RES     
   13479 H6         457.8210  -339.1544  -285.6989 H6            1 RES     
   13480 H6         457.4720  -339.5021  -283.9715 H6            1 RES     
   13481 H6         457.8704  -337.1175  -284.4016 H6            1 RES     
   13482 H6         459.5504  -337.4610  -284.9620 H6            1 RES     
   13483 H6         460.0815  -338.3591  -282.6440 H6            1 RES     
   13484 H6         459.4434  -336.6813  -282.5705 H6            1 RES     
   13485 H6         458.3652  -338.0639  -282.1545 H6            1 RES     
   13486 C0         460.0608  -359.5639  -283.6453 C0            1 RES     
   13487 C1         459.1930  -358.3382  -284.0063 C1            1 RES     
   13488 C1         458.0340  -358.6885  -284.6222 C1            1 RES     
   13489 S2         457.1123  -357.3788  -285.1098 S2            1 RES     
   13490 C1         458.2694  -356.2690  -284.5437 C1            1 RES     
   13491 C1         459.3605  -356.9436  -283.9849 C1            1 RES     
   13492 C1         458.0033  -360.0920  -284.7699 C1            1 RES     
   13493 C1         459.1704  -360.6164  -284.3076 C1            1 RES     
   13494 C1         459.2703  -361.9807  -284.5523 C1            1 RES     
   13495 C1         458.1092  -362.4560  -285.1851 C1            1 RES     
   13496 S2         456.9839  -361.2134  -285.4555 S2            1 RES     
   13497 H3         460.2302  -356.4171  -283.6402 H3            1 RES     
   13498 H3         460.1283  -362.5899  -284.2946 H3            1 RES     
   13499 N4         456.6964  -365.8976  -285.6432 N4            1 RES     
   13500 C1         456.9130  -364.6500  -285.1325 C1            1 RES     
   13501 C1         457.8936  -363.8088  -285.6863 C1            1 RES     
   13502 C1         458.6194  -364.2766  -286.7831 C1            1 RES     
   13503 N4         459.5520  -363.5456  -287.4460 N4            1 RES     
   13504 S2         460.0083  -364.5743  -288.6565 S2            1 RES     
   13505 N4         459.0865  -365.9238  -288.3967 N4            1 RES     
   13506 C1         458.3618  -365.5683  -287.3071 C1            1 RES     
   13507 C1         457.3983  -366.3759  -286.7087 C1            1 RES     
   13508 H5         456.3247  -364.3126  -284.2836 H5            1 RES     
   13509 C0         460.2578  -359.9571  -282.1388 C0            1 RES     
   13510 C0         459.2452  -360.5855  -281.1085 C0            1 RES     
   13511 C0         460.0169  -360.6138  -279.7424 C0            1 RES     
   13512 C0         459.2918  -361.2513  -278.5507 C0            1 RES     
   13513 C0         460.1247  -361.1771  -277.2493 C0            1 RES     
   13514 C0         461.4714  -361.9334  -277.2684 C0            1 RES     
   13515 C0         461.3726  -363.4231  -277.6412 C0            1 RES     
   13516 C0         460.4378  -364.2168  -276.7112 C0            1 RES     
   13517 C0         460.2973  -365.6904  -277.1189 C0            1 RES     
   13518 C0         461.5979  -366.4931  -276.9465 C0            1 RES     
   13519 C0         461.4163  -367.9893  -277.2477 C0            1 RES     
   13520 C0         461.0795  -368.2725  -278.7121 C0            1 RES     
   13521 C0         457.8135  -359.9743  -280.9613 C0            1 RES     
   13522 C0         457.6574  -358.5194  -280.4213 C0            1 RES     
   13523 C0         456.9382  -357.6733  -281.4762 C0            1 RES     
   13524 C0         456.9614  -356.1559  -281.3157 C0            1 RES     
   13525 C0         455.9727  -355.5652  -280.3212 C0            1 RES     
   13526 C0         456.1331  -354.0308  -280.3541 C0            1 RES     
   13527 C0         455.0771  -353.2699  -279.5490 C0            1 RES     
   13528 C0         453.6831  -353.3796  -280.1703 C0            1 RES     
   13529 H6         460.6158  -359.0878  -281.6490 H6            1 RES     
   13530 H6         461.0908  -360.6957  -282.1565 H6            1 RES     
   13531 H6         459.0694  -361.6345  -281.4357 H6            1 RES     
   13532 H6         460.2790  -359.5740  -279.4480 H6            1 RES     
   13533 H6         460.9673  -361.1667  -279.9020 H6            1 RES     
   13534 H6         459.0243  -362.3018  -278.7849 H6            1 RES     
   13535 H6         458.3570  -360.6902  -278.3496 H6            1 RES     
   13536 H6         459.5035  -361.5726  -276.4193 H6            1 RES     
   13537 H6         460.3322  -360.1113  -277.0067 H6            1 RES     
   13538 H6         461.9319  -361.8428  -276.2594 H6            1 RES     
   13539 H6         462.1661  -361.4430  -277.9835 H6            1 RES     
   13540 H6         461.0163  -363.5155  -278.6889 H6            1 RES     
   13541 H6         462.3987  -363.8434  -277.5944 H6            1 RES     
   13542 H6         459.4196  -363.7814  -276.7706 H6            1 RES     
   13543 H6         460.7883  -364.1441  -275.6583 H6            1 RES     
   13544 H6         459.5206  -366.1461  -276.4667 H6            1 RES     
   13545 H6         459.9393  -365.7341  -278.1690 H6            1 RES     
   13546 H6         462.4019  -366.0924  -277.5979 H6            1 RES     
   13547 H6         461.9242  -366.3985  -275.8878 H6            1 RES     
   13548 H6         460.6225  -368.4120  -276.5937 H6            1 RES     
   13549 H6         462.3706  -368.5075  -277.0111 H6            1 RES     
   13550 H6         460.1064  -367.8243  -278.9973 H6            1 RES     
   13551 H6         461.8776  -367.8722  -279.3729 H6            1 RES     
   13552 H6         461.0071  -369.3694  -278.8670 H6            1 RES     
   13553 H6         457.2363  -360.6325  -280.2772 H6            1 RES     
   13554 H6         457.2792  -360.1051  -281.9267 H6            1 RES     
   13555 H6         457.0468  -358.5068  -279.4906 H6            1 RES     
   13556 H6         458.6530  -358.0909  -280.1870 H6            1 RES     
   13557 H6         455.9135  -358.0450  -281.6878 H6            1 RES     
   13558 H6         457.5241  -357.8303  -282.3568 H6            1 RES     
   13559 H6         457.9821  -355.8357  -281.0924 H6            1 RES     
   13560 H6         456.6952  -355.7317  -282.3105 H6            1 RES     
   13561 H6         454.9557  -355.8640  -280.6527 H6            1 RES     
   13562 H6         456.1506  -355.9492  -279.2945 H6            1 RES     
   13563 H6         457.1407  -353.7820  -279.9504 H6            1 RES     
   13564 H6         456.0904  -353.6572  -281.4026 H6            1 RES     
   13565 H6         455.3586  -352.1939  -279.5549 H6            1 RES     
   13566 H6         455.0655  -353.6245  -278.4969 H6            1 RES     
   13567 H6         453.3160  -354.4248  -280.1633 H6            1 RES     
   13568 H6         452.9700  -352.7576  -279.5922 H6            1 RES     
   13569 H6         453.7017  -353.0083  -281.2194 H6            1 RES     
   13570 C0         461.4365  -359.3264  -284.3847 C0            1 RES     
   13571 C0         462.8353  -359.0335  -283.6750 C0            1 RES     
   13572 C0         463.7400  -358.3414  -284.7496 C0            1 RES     
   13573 C0         465.2301  -358.2034  -284.3773 C0            1 RES     
   13574 C0         466.0763  -357.4969  -285.4511 C0            1 RES     
   13575 C0         466.1104  -358.1783  -286.8308 C0            1 RES     
   13576 C0         466.5304  -359.6576  -286.8189 C0            1 RES     
   13577 C0         467.9144  -359.8961  -286.1899 C0            1 RES     
   13578 C0         468.3170  -361.3797  -286.1812 C0            1 RES     
   13579 C0         468.5435  -361.9471  -287.5940 C0            1 RES     
   13580 C0         469.0664  -363.3919  -287.5838 C0            1 RES     
   13581 C0         468.0603  -364.3938  -287.0171 C0            1 RES     
   13582 C0         463.0171  -358.3570  -282.2515 C0            1 RES     
   13583 C0         462.6577  -356.8658  -281.9967 C0            1 RES     
   13584 C0         461.3654  -356.7063  -281.1759 C0            1 RES     
   13585 C0         460.8892  -355.2851  -280.9245 C0            1 RES     
   13586 C0         461.6837  -354.4574  -279.9240 C0            1 RES     
   13587 C0         460.9115  -353.1388  -279.7144 C0            1 RES     
   13588 C0         461.4819  -352.2366  -278.6187 C0            1 RES     
   13589 C0         461.3230  -352.8447  -277.2244 C0            1 RES     
   13590 H6         461.2716  -358.5593  -285.1767 H6            1 RES     
   13591 H6         461.6327  -360.2252  -285.0121 H6            1 RES     
   13592 H6         463.2556  -360.0497  -283.4941 H6            1 RES     
   13593 H6         463.3351  -357.3296  -284.9679 H6            1 RES     
   13594 H6         463.6787  -358.9424  -285.6823 H6            1 RES     
   13595 H6         465.6484  -359.2082  -284.1583 H6            1 RES     
   13596 H6         465.3445  -357.5712  -283.4756 H6            1 RES     
   13597 H6         467.1145  -357.4161  -285.0639 H6            1 RES     
   13598 H6         465.7025  -356.4582  -285.5864 H6            1 RES     
   13599 H6         466.8113  -357.6050  -287.4761 H6            1 RES     
   13600 H6         465.1051  -358.1093  -287.2985 H6            1 RES     
   13601 H6         465.7713  -360.2549  -286.2700 H6            1 RES     
   13602 H6         466.5295  -359.9969  -287.8748 H6            1 RES     
   13603 H6         467.8890  -359.5655  -285.1306 H6            1 RES     
   13604 H6         468.6873  -359.3002  -286.7218 H6            1 RES     
   13605 H6         469.2707  -361.4660  -285.6163 H6            1 RES     
   13606 H6         467.5388  -361.9591  -285.6404 H6            1 RES     
   13607 H6         467.6091  -361.9129  -288.1913 H6            1 RES     
   13608 H6         469.3063  -361.3166  -288.1009 H6            1 RES     
   13609 H6         470.0139  -363.4457  -287.0048 H6            1 RES     
   13610 H6         469.2854  -363.6852  -288.6332 H6            1 RES     
   13611 H6         467.8402  -364.1854  -285.9507 H6            1 RES     
   13612 H6         467.1164  -364.3626  -287.6020 H6            1 RES     
   13613 H6         468.4852  -365.4174  -287.0845 H6            1 RES     
   13614 H6         464.0997  -358.4357  -282.0419 H6            1 RES     
   13615 H6         462.6735  -358.9970  -281.4172 H6            1 RES     
   13616 H6         463.4506  -356.4331  -281.3476 H6            1 RES     
   13617 H6         462.6542  -356.2909  -282.9449 H6            1 RES     
   13618 H6         461.4536  -357.2524  -280.2092 H6            1 RES     
   13619 H6         460.5301  -357.1295  -281.7226 H6            1 RES     
   13620 H6         460.7744  -354.7482  -281.8911 H6            1 RES     
   13621 H6         459.8985  -355.3997  -280.4546 H6            1 RES     
   13622 H6         461.7382  -355.0329  -278.9758 H6            1 RES     
   13623 H6         462.7120  -354.2604  -280.2924 H6            1 RES     
   13624 H6         460.9153  -352.5808  -280.6766 H6            1 RES     
   13625 H6         459.8490  -353.3506  -279.4532 H6            1 RES     
   13626 H6         460.9017  -351.2879  -278.6364 H6            1 RES     
   13627 H6         462.5452  -352.0063  -278.8287 H6            1 RES     
   13628 H6         461.9109  -353.7782  -277.1199 H6            1 RES     
   13629 H6         461.6841  -352.1205  -276.4657 H6            1 RES     
   13630 H6         460.2521  -353.0636  -277.0195 H6            1 RES     
   13631 C0         457.5872  -371.7422  -287.5722 C0            1 RES     
   13632 C1         457.2257  -370.2406  -287.5531 C1            1 RES     
   13633 C1         456.3552  -369.9056  -288.5406 C1            1 RES     
   13634 S2         456.0139  -368.2680  -288.6055 S2            1 RES     
   13635 C1         457.0705  -367.9290  -287.3173 C1            1 RES     
   13636 C1         457.6759  -369.1046  -286.8599 C1            1 RES     
   13637 C1         456.0747  -371.0557  -289.3095 C1            1 RES     
   13638 C1         456.8191  -372.0961  -288.8465 C1            1 RES     
   13639 C1         456.7020  -373.2267  -289.6462 C1            1 RES     
   13640 C1         455.8085  -372.9931  -290.7051 C1            1 RES     
   13641 S2         455.1853  -371.4140  -290.6686 S2            1 RES     
   13642 H3         458.4337  -369.0877  -286.0998 H3            1 RES     
   13643 H3         457.2319  -374.1564  -289.4770 H3            1 RES     
   13644 N4         453.9644  -375.2901  -293.0233 N4            1 RES     
   13645 C1         454.2339  -374.4684  -291.9667 C1            1 RES     
   13646 C1         455.5129  -373.9094  -291.8009 C1            1 RES     
   13647 C1         456.4875  -374.2002  -292.7570 C1            1 RES     
   13648 N4         457.7421  -373.6813  -292.7466 N4            1 RES     
   13649 S2         458.3966  -374.3185  -294.1241 S2            1 RES     
   13650 N4         457.1727  -375.2364  -294.7550 N4            1 RES     
   13651 C1         456.1771  -375.0405  -293.8556 C1            1 RES     
   13652 C1         454.9032  -375.5921  -293.9636 C1            1 RES     
   13653 H5         453.4503  -374.2549  -291.2448 H5            1 RES     
   13654 C0         457.0849  -372.6749  -286.4144 C0            1 RES     
   13655 C0         455.6374  -373.2030  -286.0861 C0            1 RES     
   13656 C0         455.7840  -373.9825  -284.7321 C0            1 RES     
   13657 C0         454.5279  -374.6796  -284.1950 C0            1 RES     
   13658 C0         454.7773  -375.3706  -282.8337 C0            1 RES     
   13659 C0         455.8194  -376.5106  -282.8389 C0            1 RES     
   13660 C0         455.5474  -377.6325  -283.8565 C0            1 RES     
   13661 C0         454.1722  -378.2972  -283.6681 C0            1 RES     
   13662 C0         453.8802  -379.3777  -284.7192 C0            1 RES     
   13663 C0         454.7958  -380.6073  -284.5942 C0            1 RES     
   13664 C0         454.4203  -381.7291  -285.5754 C0            1 RES     
   13665 C0         454.6316  -381.3439  -287.0401 C0            1 RES     
   13666 C0         454.4370  -372.2013  -286.0598 C0            1 RES     
   13667 C0         454.4081  -371.0741  -284.9822 C0            1 RES     
   13668 C0         454.3675  -369.7149  -285.6873 C0            1 RES     
   13669 C0         454.6613  -368.4682  -284.8579 C0            1 RES     
   13670 C0         453.5193  -367.9395  -284.0024 C0            1 RES     
   13671 C0         454.0154  -366.6614  -283.2942 C0            1 RES     
   13672 C0         452.9254  -365.8956  -282.5407 C0            1 RES     
   13673 C0         451.9004  -365.2649  -283.4857 C0            1 RES     
   13674 H6         457.4049  -372.2245  -285.5097 H6            1 RES     
   13675 H6         457.6718  -373.6120  -286.5451 H6            1 RES     
   13676 H6         455.3765  -373.9317  -286.8858 H6            1 RES     
   13677 H6         456.1329  -373.2821  -283.9420 H6            1 RES     
   13678 H6         456.5726  -374.7531  -284.8690 H6            1 RES     
   13679 H6         454.1482  -375.4081  -284.9400 H6            1 RES     
   13680 H6         453.7387  -373.9219  -284.0150 H6            1 RES     
   13681 H6         453.8094  -375.7717  -282.4682 H6            1 RES     
   13682 H6         455.1035  -374.6098  -282.0903 H6            1 RES     
   13683 H6         455.8547  -376.9500  -281.8170 H6            1 RES     
   13684 H6         456.8288  -376.0943  -283.0442 H6            1 RES     
   13685 H6         455.6200  -377.2195  -284.8847 H6            1 RES     
   13686 H6         456.3520  -378.3876  -283.7376 H6            1 RES     
   13687 H6         453.3829  -377.5275  -283.7889 H6            1 RES     
   13688 H6         454.0880  -378.7268  -282.6459 H6            1 RES     
   13689 H6         452.8300  -379.7123  -284.5732 H6            1 RES     
   13690 H6         453.9630  -378.9212  -285.7279 H6            1 RES     
   13691 H6         455.8580  -380.3304  -284.7572 H6            1 RES     
   13692 H6         454.6927  -381.0111  -283.5634 H6            1 RES     
   13693 H6         453.3615  -382.0295  -285.4175 H6            1 RES     
   13694 H6         455.0646  -382.6081  -285.3579 H6            1 RES     
   13695 H6         453.9741  -380.5017  -287.3358 H6            1 RES     
   13696 H6         455.6920  -381.0621  -287.2129 H6            1 RES     
   13697 H6         454.3847  -382.2115  -287.6873 H6            1 RES     
   13698 H6         453.5074  -372.7950  -285.9259 H6            1 RES     
   13699 H6         454.3098  -371.7848  -287.0819 H6            1 RES     
   13700 H6         453.5006  -371.1613  -284.3435 H6            1 RES     
   13701 H6         455.2999  -371.1498  -284.3275 H6            1 RES     
   13702 H6         453.4533  -369.5875  -286.3046 H6            1 RES     
   13703 H6         455.2012  -369.7607  -286.3552 H6            1 RES     
   13704 H6         455.5559  -368.6427  -284.2550 H6            1 RES     
   13705 H6         454.9080  -367.6602  -285.5837 H6            1 RES     
   13706 H6         452.6753  -367.7105  -284.6870 H6            1 RES     
   13707 H6         453.1902  -368.6914  -283.2544 H6            1 RES     
   13708 H6         454.8116  -366.9553  -282.5732 H6            1 RES     
   13709 H6         454.4715  -365.9605  -284.0300 H6            1 RES     
   13710 H6         453.4174  -365.0672  -281.9851 H6            1 RES     
   13711 H6         452.4236  -366.5614  -281.8074 H6            1 RES     
   13712 H6         451.3383  -366.0357  -284.0489 H6            1 RES     
   13713 H6         451.1747  -364.6662  -282.8986 H6            1 RES     
   13714 H6         452.4109  -364.5881  -284.2070 H6            1 RES     
   13715 C0         459.1581  -371.7854  -287.7341 C0            1 RES     
   13716 C0         460.1933  -372.2901  -286.6297 C0            1 RES     
   13717 C0         461.5759  -371.6522  -286.9952 C0            1 RES     
   13718 C0         462.7907  -372.2076  -286.2245 C0            1 RES     
   13719 C0         464.1239  -371.5361  -286.5981 C0            1 RES     
   13720 C0         464.5447  -371.6602  -288.0734 C0            1 RES     
   13721 C0         464.5873  -373.0959  -288.6224 C0            1 RES     
   13722 C0         465.5232  -374.0266  -287.8310 C0            1 RES     
   13723 C0         465.5505  -375.4587  -288.3892 C0            1 RES     
   13724 C0         466.1813  -375.5433  -289.7906 C0            1 RES     
   13725 C0         466.3240  -376.9865  -290.2985 C0            1 RES     
   13726 C0         464.9816  -377.6793  -290.5327 C0            1 RES     
   13727 C0         459.9469  -372.2646  -285.0627 C0            1 RES     
   13728 C0         459.8565  -370.9328  -284.2651 C0            1 RES     
   13729 C0         458.4161  -370.6054  -283.8324 C0            1 RES     
   13730 C0         458.2072  -369.2902  -283.1000 C0            1 RES     
   13731 C0         458.7072  -369.2122  -281.6644 C0            1 RES     
   13732 C0         458.2278  -367.8626  -281.0918 C0            1 RES     
   13733 C0         458.5070  -367.6711  -279.6000 C0            1 RES     
   13734 C0         457.6833  -368.6203  -278.7284 C0            1 RES     
   13735 H6         459.4916  -370.7884  -288.1054 H6            1 RES     
   13736 H6         459.3803  -372.4167  -288.6241 H6            1 RES     
   13737 H6         460.2724  -373.3845  -286.8250 H6            1 RES     
   13738 H6         461.5242  -370.5543  -286.8297 H6            1 RES     
   13739 H6         461.7541  -371.8264  -288.0781 H6            1 RES     
   13740 H6         462.8555  -373.3046  -286.3827 H6            1 RES     
   13741 H6         462.6790  -372.0152  -285.1399 H6            1 RES     
   13742 H6         464.9167  -371.9805  -285.9591 H6            1 RES     
   13743 H6         464.0735  -370.4550  -286.3415 H6            1 RES     
   13744 H6         465.5507  -371.1986  -288.1802 H6            1 RES     
   13745 H6         463.8461  -371.0705  -288.7045 H6            1 RES     
   13746 H6         463.5620  -373.5237  -288.6239 H6            1 RES     
   13747 H6         464.9257  -373.0237  -289.6761 H6            1 RES     
   13748 H6         465.1581  -374.0980  -286.7852 H6            1 RES     
   13749 H6         466.5539  -373.6110  -287.8120 H6            1 RES     
   13750 H6         466.1611  -376.0779  -287.6965 H6            1 RES     
   13751 H6         464.5152  -375.8610  -288.3945 H6            1 RES     
   13752 H6         465.5891  -374.9649  -290.5294 H6            1 RES     
   13753 H6         467.2009  -375.1028  -289.7373 H6            1 RES     
   13754 H6         466.9307  -377.5802  -289.5806 H6            1 RES     
   13755 H6         466.8663  -376.9572  -291.2681 H6            1 RES     
   13756 H6         464.4128  -377.7874  -289.5872 H6            1 RES     
   13757 H6         464.3753  -377.1043  -291.2647 H6            1 RES     
   13758 H6         465.1605  -378.6959  -290.9417 H6            1 RES     
   13759 H6         460.8137  -372.8016  -284.6356 H6            1 RES     
   13760 H6         459.1710  -372.9800  -284.7313 H6            1 RES     
   13761 H6         460.4054  -371.0739  -283.3080 H6            1 RES     
   13762 H6         460.3528  -370.1071  -284.8141 H6            1 RES     
   13763 H6         457.9945  -371.4437  -283.2324 H6            1 RES     
   13764 H6         457.7912  -370.4760  -284.7089 H6            1 RES     
   13765 H6         458.6029  -368.4501  -283.7111 H6            1 RES     
   13766 H6         457.1130  -369.1887  -283.0112 H6            1 RES     
   13767 H6         458.2564  -370.0571  -281.1022 H6            1 RES     
   13768 H6         459.8134  -369.2913  -281.6195 H6            1 RES     
   13769 H6         458.7324  -367.0494  -281.6585 H6            1 RES     
   13770 H6         457.1298  -367.7467  -281.2437 H6            1 RES     
   13771 H6         458.2061  -366.6329  -279.3381 H6            1 RES     
   13772 H6         459.5897  -367.7891  -279.3959 H6            1 RES     
   13773 H6         457.9603  -369.6782  -278.9075 H6            1 RES     
   13774 H6         457.8684  -368.3893  -277.6593 H6            1 RES     
   13775 H6         456.5983  -368.4879  -278.9337 H6            1 RES     
   13776 C0         454.2217  -379.9984  -297.0779 C0            1 RES     
   13777 C1         454.2242  -378.5754  -296.4771 C1            1 RES     
   13778 C1         453.9087  -377.6256  -297.3956 C1            1 RES     
   13779 S2         453.9923  -376.0635  -296.7996 S2            1 RES     
   13780 C1         454.5052  -376.6032  -295.2710 C1            1 RES     
   13781 C1         454.6057  -377.9987  -295.2542 C1            1 RES     
   13782 C1         453.7052  -378.2506  -298.6449 C1            1 RES     
   13783 C1         453.9576  -379.5821  -298.5257 C1            1 RES     
   13784 C1         453.9163  -380.2394  -299.7495 C1            1 RES     
   13785 C1         453.5859  -379.3441  -300.7808 C1            1 RES     
   13786 S2         453.3651  -377.7643  -300.1988 S2            1 RES     
   13787 H3         454.9878  -378.5245  -294.3999 H3            1 RES     
   13788 H3         454.1170  -381.2951  -299.8869 H3            1 RES     
   13789 N4         452.3404  -379.8513  -304.2797 N4            1 RES     
   13790 C1         452.3484  -379.6054  -302.9367 C1            1 RES     
   13791 C1         453.5490  -379.6485  -302.2069 C1            1 RES     
   13792 C1         454.7298  -379.9262  -302.8978 C1            1 RES     
   13793 N4         455.9607  -379.9411  -302.3249 N4            1 RES     
   13794 S2         456.9443  -380.2550  -303.6156 S2            1 RES     
   13795 N4         455.8959  -380.3815  -304.8897 N4            1 RES     
   13796 C1         454.6975  -380.1585  -304.2957 C1            1 RES     
   13797 C1         453.4805  -380.1309  -304.9715 C1            1 RES     
   13798 H5         451.4129  -379.3836  -302.4304 H5            1 RES     
   13799 C0         453.1124  -381.0204  -296.6448 C0            1 RES     
   13800 C0         451.5743  -381.0598  -296.9837 C0            1 RES     
   13801 C0         451.0012  -382.2550  -296.1438 C0            1 RES     
   13802 C0         449.5147  -382.5827  -296.3309 C0            1 RES     
   13803 C0         449.0500  -383.7417  -295.4178 C0            1 RES     
   13804 C0         449.7298  -385.1065  -295.6646 C0            1 RES     
   13805 C0         449.6378  -385.6242  -297.1109 C0            1 RES     
   13806 C0         448.1889  -385.7597  -297.6118 C0            1 RES     
   13807 C0         448.1013  -386.2227  -299.0731 C0            1 RES     
   13808 C0         448.5971  -387.6635  -299.2826 C0            1 RES     
   13809 C0         448.3984  -388.1557  -300.7250 C0            1 RES     
   13810 C0         449.2470  -387.3940  -301.7438 C0            1 RES     
   13811 C0         450.7142  -379.7638  -296.8230 C0            1 RES     
   13812 C0         450.5154  -379.1520  -295.4021 C0            1 RES     
   13813 C0         451.0569  -377.7193  -295.3989 C0            1 RES     
   13814 C0         451.2700  -377.0367  -294.0507 C0            1 RES     
   13815 C0         450.0320  -376.4574  -293.3820 C0            1 RES     
   13816 C0         450.4801  -375.7799  -292.0700 C0            1 RES     
   13817 C0         449.3811  -374.9796  -291.3673 C0            1 RES     
   13818 C0         448.9766  -373.7325  -292.1563 C0            1 RES     
   13819 H6         453.1428  -381.0613  -295.5860 H6            1 RES     
   13820 H6         453.4800  -381.9997  -297.0262 H6            1 RES     
   13821 H6         451.4937  -381.3171  -298.0634 H6            1 RES     
   13822 H6         451.1578  -382.0510  -295.0620 H6            1 RES     
   13823 H6         451.5881  -383.1623  -296.4022 H6            1 RES     
   13824 H6         449.3066  -382.8153  -297.3951 H6            1 RES     
   13825 H6         448.9074  -381.7013  -296.0418 H6            1 RES     
   13826 H6         447.9537  -383.8600  -295.5416 H6            1 RES     
   13827 H6         449.2181  -383.4610  -294.3544 H6            1 RES     
   13828 H6         449.2630  -385.8523  -294.9831 H6            1 RES     
   13829 H6         450.8037  -385.0457  -295.3865 H6            1 RES     
   13830 H6         450.1975  -384.9385  -297.7814 H6            1 RES     
   13831 H6         450.1421  -386.6123  -297.1400 H6            1 RES     
   13832 H6         447.7022  -384.7638  -297.5736 H6            1 RES     
   13833 H6         447.6174  -386.4534  -296.9570 H6            1 RES     
   13834 H6         447.0323  -386.1774  -299.3756 H6            1 RES     
   13835 H6         448.6720  -385.5099  -299.7046 H6            1 RES     
   13836 H6         449.6707  -387.7570  -299.0177 H6            1 RES     
   13837 H6         448.0112  -388.3310  -298.6138 H6            1 RES     
   13838 H6         447.3247  -388.0820  -301.0041 H6            1 RES     
   13839 H6         448.6935  -389.2264  -300.7683 H6            1 RES     
   13840 H6         448.9627  -386.3233  -301.7872 H6            1 RES     
   13841 H6         450.3239  -387.4793  -301.4853 H6            1 RES     
   13842 H6         449.0884  -387.8292  -302.7527 H6            1 RES     
   13843 H6         449.7003  -379.9824  -297.2213 H6            1 RES     
   13844 H6         451.0941  -379.0040  -297.5392 H6            1 RES     
   13845 H6         449.4353  -379.1157  -295.1353 H6            1 RES     
   13846 H6         451.0378  -379.7705  -294.6443 H6            1 RES     
   13847 H6         450.5113  -377.0608  -296.1072 H6            1 RES     
   13848 H6         452.0531  -377.8333  -295.7701 H6            1 RES     
   13849 H6         451.7934  -377.7236  -293.3812 H6            1 RES     
   13850 H6         451.9541  -376.1781  -294.2392 H6            1 RES     
   13851 H6         449.5978  -375.7137  -294.0833 H6            1 RES     
   13852 H6         449.2781  -377.2450  -293.1709 H6            1 RES     
   13853 H6         450.8429  -376.5748  -291.3795 H6            1 RES     
   13854 H6         451.3313  -375.0872  -292.2604 H6            1 RES     
   13855 H6         449.7858  -374.6363  -290.3898 H6            1 RES     
   13856 H6         448.4979  -375.6244  -291.1752 H6            1 RES     
   13857 H6         448.5250  -373.9977  -293.1325 H6            1 RES     
   13858 H6         448.2311  -373.1524  -291.5754 H6            1 RES     
   13859 H6         449.8652  -373.0855  -292.3310 H6            1 RES     
   13860 C0         455.6780  -380.5552  -296.8233 C0            1 RES     
   13861 C0         456.0570  -381.7524  -295.8388 C0            1 RES     
   13862 C0         457.5761  -381.5814  -295.4989 C0            1 RES     
   13863 C0         458.2350  -382.7728  -294.7746 C0            1 RES     
   13864 C0         459.7206  -382.5519  -294.4395 C0            1 RES     
   13865 C0         460.6476  -382.3032  -295.6427 C0            1 RES     
   13866 C0         460.5830  -383.3693  -296.7490 C0            1 RES     
   13867 C0         460.9018  -384.7896  -296.2500 C0            1 RES     
   13868 C0         460.8278  -385.8438  -297.3665 C0            1 RES     
   13869 C0         461.9221  -385.6634  -298.4338 C0            1 RES     
   13870 C0         461.9291  -386.7869  -299.4821 C0            1 RES     
   13871 C0         460.6690  -386.8125  -300.3474 C0            1 RES     
   13872 C0         455.2278  -382.1818  -294.5562 C0            1 RES     
   13873 C0         455.1292  -381.2740  -293.2976 C0            1 RES     
   13874 C0         453.7460  -380.6131  -293.1585 C0            1 RES     
   13875 C0         453.5636  -379.6537  -291.9941 C0            1 RES     
   13876 C0         453.4640  -380.2658  -290.6040 C0            1 RES     
   13877 C0         453.1103  -379.1224  -289.6311 C0            1 RES     
   13878 C0         452.8166  -379.5750  -288.1997 C0            1 RES     
   13879 C0         451.5291  -380.3946  -288.1023 C0            1 RES     
   13880 H6         456.3423  -379.6878  -296.6013 H6            1 RES     
   13881 H6         456.0857  -380.8743  -297.8092 H6            1 RES     
   13882 H6         455.9618  -382.6592  -296.4796 H6            1 RES     
   13883 H6         457.7082  -380.6714  -294.8748 H6            1 RES     
   13884 H6         458.1214  -381.4228  -296.4541 H6            1 RES     
   13885 H6         458.1120  -383.6894  -295.3887 H6            1 RES     
   13886 H6         457.7524  -382.9406  -293.7924 H6            1 RES     
   13887 H6         460.0792  -383.4472  -293.8879 H6            1 RES     
   13888 H6         459.8144  -381.6883  -293.7450 H6            1 RES     
   13889 H6         461.6899  -382.2360  -295.2609 H6            1 RES     
   13890 H6         460.4023  -381.3196  -296.0972 H6            1 RES     
   13891 H6         459.5735  -383.3626  -297.2128 H6            1 RES     
   13892 H6         461.3145  -383.0665  -297.5257 H6            1 RES     
   13893 H6         460.1497  -385.0792  -295.4867 H6            1 RES     
   13894 H6         461.9065  -384.8149  -295.7754 H6            1 RES     
   13895 H6         460.9640  -386.8419  -296.8961 H6            1 RES     
   13896 H6         459.8166  -385.8102  -297.8247 H6            1 RES     
   13897 H6         461.8115  -384.6914  -298.9572 H6            1 RES     
   13898 H6         462.9090  -385.6749  -297.9216 H6            1 RES     
   13899 H6         462.0575  -387.7702  -298.9798 H6            1 RES     
   13900 H6         462.8001  -386.6250  -300.1531 H6            1 RES     
   13901 H6         459.7664  -387.0244  -299.7396 H6            1 RES     
   13902 H6         460.5425  -385.8406  -300.8703 H6            1 RES     
   13903 H6         460.7640  -387.6148  -301.1090 H6            1 RES     
   13904 H6         455.7151  -383.1109  -294.2078 H6            1 RES     
   13905 H6         454.2466  -382.6302  -294.8010 H6            1 RES     
   13906 H6         455.2125  -381.9280  -292.4017 H6            1 RES     
   13907 H6         455.9706  -380.5527  -293.2617 H6            1 RES     
   13908 H6         452.9486  -381.3903  -293.1370 H6            1 RES     
   13909 H6         453.5608  -379.9693  -294.0111 H6            1 RES     
   13910 H6         454.3428  -378.8616  -292.0311 H6            1 RES     
   13911 H6         452.5745  -379.1958  -292.1596 H6            1 RES     
   13912 H6         452.6537  -381.0249  -290.6253 H6            1 RES     
   13913 H6         454.4164  -380.7550  -290.3113 H6            1 RES     
   13914 H6         453.9633  -378.4088  -289.6138 H6            1 RES     
   13915 H6         452.2155  -378.5674  -289.9962 H6            1 RES     
   13916 H6         452.6753  -378.6585  -287.5857 H6            1 RES     
   13917 H6         453.6770  -380.1442  -287.7951 H6            1 RES     
   13918 H6         451.6122  -381.3480  -288.6609 H6            1 RES     
   13919 H6         451.3260  -380.6324  -287.0380 H6            1 RES     
   13920 H6         450.6704  -379.8117  -288.5021 H6            1 RES     
   13921 C0         453.1179  -382.6108  -309.7982 C0            1 RES     
   13922 C1         453.1996  -381.5902  -308.6417 C1            1 RES     
   13923 C1         453.4888  -380.3366  -309.0777 C1            1 RES     
   13924 S2         453.6756  -379.2239  -307.8410 S2            1 RES     
   13925 C1         453.4142  -380.4065  -306.6477 C1            1 RES     
   13926 C1         453.1881  -381.6546  -307.2384 C1            1 RES     
   13927 C1         453.6589  -380.3700  -310.4787 C1            1 RES     
   13928 C1         453.5424  -381.6539  -310.9132 C1            1 RES     
   13929 C1         453.8401  -381.7834  -312.2645 C1            1 RES     
   13930 C1         454.1481  -380.5324  -312.8252 C1            1 RES     
   13931 S2         454.0727  -379.2880  -311.6723 S2            1 RES     
   13932 H3         453.0775  -382.5442  -306.6479 H3            1 RES     
   13933 H3         453.8393  -382.7215  -312.8066 H3            1 RES     
   13934 N4         454.2968  -379.3044  -316.3636 N4            1 RES     
   13935 C1         453.8314  -379.5594  -315.1056 C1            1 RES     
   13936 C1         454.6073  -380.2887  -314.1881 C1            1 RES     
   13937 C1         455.8710  -380.7224  -314.5928 C1            1 RES     
   13938 N4         456.7418  -381.3843  -313.7883 N4            1 RES     
   13939 S2         458.0567  -381.5695  -314.7725 S2            1 RES     
   13940 N4         457.5928  -380.8541  -316.1907 N4            1 RES     
   13941 C1         456.3393  -380.4279  -315.8979 C1            1 RES     
   13942 C1         455.5241  -379.7245  -316.7808 C1            1 RES     
   13943 H5         452.8468  -379.2000  -314.8191 H5            1 RES     
   13944 C0         451.7312  -383.2370  -310.1825 C0            1 RES     
   13945 C0         450.4824  -382.5904  -310.8926 C0            1 RES     
   13946 C0         449.3764  -383.7033  -310.8679 C0            1 RES     
   13947 C0         448.0501  -383.3771  -311.5657 C0            1 RES     
   13948 C0         447.0203  -384.5238  -311.4336 C0            1 RES     
   13949 C0         447.4216  -385.8665  -312.0831 C0            1 RES     
   13950 C0         447.7922  -385.7799  -313.5741 C0            1 RES     
   13951 C0         446.6653  -385.1929  -314.4425 C0            1 RES     
   13952 C0         447.0578  -385.0555  -315.9205 C0            1 RES     
   13953 C0         447.2635  -386.4094  -316.6208 C0            1 RES     
   13954 C0         447.5430  -386.2631  -318.1251 C0            1 RES     
   13955 C0         448.8691  -385.5637  -318.4262 C0            1 RES     
   13956 C0         449.9386  -381.2114  -310.3950 C0            1 RES     
   13957 C0         449.3391  -381.1013  -308.9593 C0            1 RES     
   13958 C0         450.1387  -380.0631  -308.1663 C0            1 RES     
   13959 C0         449.9512  -380.0177  -306.6525 C0            1 RES     
   13960 C0         448.7119  -379.2949  -306.1453 C0            1 RES     
   13961 C0         448.7473  -379.3275  -304.6029 C0            1 RES     
   13962 C0         447.6678  -378.4764  -303.9302 C0            1 RES     
   13963 C0         447.8925  -376.9782  -304.1446 C0            1 RES     
   13964 H6         451.3338  -383.6497  -309.2905 H6            1 RES     
   13965 H6         451.9920  -384.0858  -310.8542 H6            1 RES     
   13966 H6         450.7770  -382.4099  -311.9505 H6            1 RES     
   13967 H6         449.1369  -383.9585  -309.8124 H6            1 RES     
   13968 H6         449.8007  -384.6128  -311.3446 H6            1 RES     
   13969 H6         448.2304  -383.1339  -312.6325 H6            1 RES     
   13970 H6         447.5898  -382.4932  -311.0797 H6            1 RES     
   13971 H6         446.0639  -384.1815  -311.8802 H6            1 RES     
   13972 H6         446.8153  -384.7106  -310.3561 H6            1 RES     
   13973 H6         446.5722  -386.5754  -311.9621 H6            1 RES     
   13974 H6         448.2846  -386.3036  -311.5367 H6            1 RES     
   13975 H6         448.7069  -385.1608  -313.6886 H6            1 RES     
   13976 H6         448.0349  -386.8082  -313.9137 H6            1 RES     
   13977 H6         446.4364  -384.1676  -314.0871 H6            1 RES     
   13978 H6         445.7445  -385.8093  -314.3481 H6            1 RES     
   13979 H6         446.2322  -384.5203  -316.4383 H6            1 RES     
   13980 H6         447.9731  -384.4306  -315.9866 H6            1 RES     
   13981 H6         448.0972  -386.9751  -316.1557 H6            1 RES     
   13982 H6         446.3301  -387.0026  -316.5065 H6            1 RES     
   13983 H6         446.7103  -385.7095  -318.6113 H6            1 RES     
   13984 H6         447.5862  -387.2811  -318.5689 H6            1 RES     
   13985 H6         448.8695  -384.5196  -318.0534 H6            1 RES     
   13986 H6         449.7102  -386.1213  -317.9619 H6            1 RES     
   13987 H6         449.0270  -385.5327  -319.5246 H6            1 RES     
   13988 H6         449.1414  -380.8910  -311.0994 H6            1 RES     
   13989 H6         450.7270  -380.4466  -310.5620 H6            1 RES     
   13990 H6         448.2782  -380.7665  -308.9989 H6            1 RES     
   13991 H6         449.3712  -382.0890  -308.4562 H6            1 RES     
   13992 H6         450.0755  -379.0495  -308.6153 H6            1 RES     
   13993 H6         451.1485  -380.3982  -308.2730 H6            1 RES     
   13994 H6         450.0035  -381.0343  -306.2553 H6            1 RES     
   13995 H6         450.8260  -379.4615  -306.2453 H6            1 RES     
   13996 H6         448.7643  -378.2509  -306.5204 H6            1 RES     
   13997 H6         447.7816  -379.7721  -306.5195 H6            1 RES     
   13998 H6         448.6241  -380.3858  -304.2788 H6            1 RES     
   13999 H6         449.7354  -378.9750  -304.2285 H6            1 RES     
   14000 H6         447.7216  -378.6661  -302.8356 H6            1 RES     
   14001 H6         446.6610  -378.7763  -304.2899 H6            1 RES     
   14002 H6         447.8137  -376.7043  -305.2151 H6            1 RES     
   14003 H6         447.1276  -376.4048  -303.5827 H6            1 RES     
   14004 H6         448.8977  -376.6844  -303.7676 H6            1 RES     
   14005 C0         454.1947  -383.7134  -309.4511 C0            1 RES     
   14006 C0         453.8814  -385.2268  -309.0541 C0            1 RES     
   14007 C0         455.1421  -385.7532  -308.2886 C0            1 RES     
   14008 C0         455.1822  -387.2741  -308.0373 C0            1 RES     
   14009 C0         456.4259  -387.7435  -307.2620 C0            1 RES     
   14010 C0         457.7807  -387.4523  -307.9318 C0            1 RES     
   14011 C0         457.9208  -387.9670  -309.3740 C0            1 RES     
   14012 C0         457.6949  -389.4833  -309.5077 C0            1 RES     
   14013 C0         457.8335  -389.9808  -310.9556 C0            1 RES     
   14014 C0         459.2691  -389.8569  -311.4966 C0            1 RES     
   14015 C0         459.4377  -390.4674  -312.8966 C0            1 RES     
   14016 C0         458.6467  -389.7288  -313.9764 C0            1 RES     
   14017 C0         452.5428  -385.7375  -308.3727 C0            1 RES     
   14018 C0         452.1621  -385.3523  -306.9151 C0            1 RES     
   14019 C0         451.0192  -384.3228  -306.8605 C0            1 RES     
   14020 C0         450.6120  -383.8297  -305.4818 C0            1 RES     
   14021 C0         449.8420  -384.8027  -304.6000 C0            1 RES     
   14022 C0         449.3978  -384.0217  -303.3463 C0            1 RES     
   14023 C0         448.4737  -384.8000  -302.4080 C0            1 RES     
   14024 C0         447.1045  -385.0700  -303.0336 C0            1 RES     
   14025 H6         454.8928  -383.2842  -308.6952 H6            1 RES     
   14026 H6         454.8748  -383.7976  -310.3288 H6            1 RES     
   14027 H6         453.8470  -385.7537  -310.0356 H6            1 RES     
   14028 H6         455.2168  -385.2312  -307.3102 H6            1 RES     
   14029 H6         456.0388  -385.4857  -308.8878 H6            1 RES     
   14030 H6         455.1102  -387.8086  -309.0077 H6            1 RES     
   14031 H6         454.3288  -387.5820  -307.4027 H6            1 RES     
   14032 H6         456.3312  -388.8390  -307.1028 H6            1 RES     
   14033 H6         456.4284  -387.2720  -306.2547 H6            1 RES     
   14034 H6         458.5762  -387.9081  -307.3026 H6            1 RES     
   14035 H6         457.9579  -386.3556  -307.9386 H6            1 RES     
   14036 H6         457.2031  -387.4310  -310.0312 H6            1 RES     
   14037 H6         458.9457  -387.7049  -309.7071 H6            1 RES     
   14038 H6         456.6599  -389.7218  -309.1854 H6            1 RES     
   14039 H6         458.4001  -390.0373  -308.8510 H6            1 RES     
   14040 H6         457.5493  -391.0556  -310.9705 H6            1 RES     
   14041 H6         457.1179  -389.4229  -311.5963 H6            1 RES     
   14042 H6         459.5911  -388.7957  -311.5321 H6            1 RES     
   14043 H6         459.9466  -390.4054  -310.8064 H6            1 RES     
   14044 H6         459.1374  -391.5376  -312.8796 H6            1 RES     
   14045 H6         460.5145  -390.4147  -313.1668 H6            1 RES     
   14046 H6         457.5554  -389.7913  -313.7910 H6            1 RES     
   14047 H6         458.9542  -388.6621  -314.0155 H6            1 RES     
   14048 H6         458.8526  -390.1933  -314.9636 H6            1 RES     
   14049 H6         452.6352  -386.8391  -308.3683 H6            1 RES     
   14050 H6         451.6636  -385.6807  -309.0416 H6            1 RES     
   14051 H6         451.7400  -386.2575  -306.4255 H6            1 RES     
   14052 H6         453.0590  -385.0499  -306.3375 H6            1 RES     
   14053 H6         450.1266  -384.7094  -307.4029 H6            1 RES     
   14054 H6         451.3309  -383.4040  -307.3445 H6            1 RES     
   14055 H6         451.4976  -383.4182  -304.9505 H6            1 RES     
   14056 H6         449.8953  -383.0146  -305.6751 H6            1 RES     
   14057 H6         448.9588  -385.1542  -305.1742 H6            1 RES     
   14058 H6         450.4690  -385.6753  -304.3220 H6            1 RES     
   14059 H6         450.3107  -383.7238  -302.7849 H6            1 RES     
   14060 H6         448.8652  -383.0883  -303.6411 H6            1 RES     
   14061 H6         448.3097  -384.1688  -301.5071 H6            1 RES     
   14062 H6         448.9569  -385.7468  -302.0950 H6            1 RES     
   14063 H6         447.1867  -385.7309  -303.9192 H6            1 RES     
   14064 H6         446.4529  -385.5690  -302.2873 H6            1 RES     
   14065 H6         446.6239  -384.1137  -303.3360 H6            1 RES     
   14066 C0         456.5448  -380.0650  -322.1118 C0            1 RES     
   14067 C1         456.3901  -379.6132  -320.6429 C1            1 RES     
   14068 C1         457.0971  -378.4855  -320.3715 C1            1 RES     
   14069 S2         457.0251  -378.0203  -318.7650 S2            1 RES     
   14070 C1         456.0616  -379.3587  -318.3515 C1            1 RES     
   14071 C1         455.8150  -380.1498  -319.4789 C1            1 RES     
   14072 C1         457.7912  -378.0922  -321.5361 C1            1 RES     
   14073 C1         457.5733  -379.0084  -322.5179 C1            1 RES     
   14074 C1         458.3406  -378.7621  -323.6501 C1            1 RES     
   14075 C1         459.1128  -377.6004  -323.4813 C1            1 RES     
   14076 S2         458.8687  -376.8965  -321.9554 S2            1 RES     
   14077 H3         455.2874  -381.0820  -319.4071 H3            1 RES     
   14078 H3         458.3447  -379.3847  -324.5368 H3            1 RES     
   14079 N4         460.9059  -375.3707  -325.9027 N4            1 RES     
   14080 C1         459.9404  -375.8554  -325.0678 C1            1 RES     
   14081 C1         460.1114  -377.0869  -324.4122 C1            1 RES     
   14082 C1         461.3023  -377.7846  -324.6218 C1            1 RES     
   14083 N4         461.6174  -378.9535  -324.0071 N4            1 RES     
   14084 S2         463.1363  -379.2550  -324.5848 S2            1 RES     
   14085 N4         463.4371  -377.9767  -325.5916 N4            1 RES     
   14086 C1         462.2976  -377.2505  -325.4781 C1            1 RES     
   14087 C1         462.0721  -376.0389  -326.1263 C1            1 RES     
   14088 H5         459.0286  -375.2833  -324.9194 H5            1 RES     
   14089 C0         455.3189  -379.9651  -323.0864 C0            1 RES     
   14090 C0         454.6260  -378.7035  -323.7269 C0            1 RES     
   14091 C0         453.3823  -379.2682  -324.4994 C0            1 RES     
   14092 C0         452.5444  -378.2593  -325.2945 C0            1 RES     
   14093 C0         451.3192  -378.9182  -325.9709 C0            1 RES     
   14094 C0         451.6348  -380.0006  -327.0267 C0            1 RES     
   14095 C0         452.5699  -379.5460  -328.1611 C0            1 RES     
   14096 C0         452.0347  -378.3258  -328.9314 C0            1 RES     
   14097 C0         452.9955  -377.8399  -330.0260 C0            1 RES     
   14098 C0         453.1539  -378.8427  -331.1815 C0            1 RES     
   14099 C0         454.0261  -378.2986  -332.3241 C0            1 RES     
   14100 C0         455.4830  -378.0761  -331.9164 C0            1 RES     
   14101 C0         454.2508  -377.4850  -322.8215 C0            1 RES     
   14102 C0         453.1767  -377.6667  -321.7052 C0            1 RES     
   14103 C0         453.8094  -377.3370  -320.3498 C0            1 RES     
   14104 C0         453.0581  -377.7525  -319.0882 C0            1 RES     
   14105 C0         451.9128  -376.8495  -318.6540 C0            1 RES     
   14106 C0         451.3320  -377.4239  -317.3448 C0            1 RES     
   14107 C0         450.2929  -376.5258  -316.6696 C0            1 RES     
   14108 C0         450.9096  -375.2397  -316.1155 C0            1 RES     
   14109 H6         454.5228  -380.4844  -322.6171 H6            1 RES     
   14110 H6         455.6273  -380.5616  -323.9746 H6            1 RES     
   14111 H6         455.3441  -378.2897  -324.4696 H6            1 RES     
   14112 H6         452.6978  -379.7659  -323.7780 H6            1 RES     
   14113 H6         453.7467  -380.0445  -325.2059 H6            1 RES     
   14114 H6         453.1779  -377.7464  -326.0465 H6            1 RES     
   14115 H6         452.1387  -377.4951  -324.6012 H6            1 RES     
   14116 H6         450.7165  -378.1177  -326.4476 H6            1 RES     
   14117 H6         450.6720  -379.3770  -325.1908 H6            1 RES     
   14118 H6         450.6720  -380.3436  -327.4670 H6            1 RES     
   14119 H6         452.0940  -380.8832  -326.5323 H6            1 RES     
   14120 H6         453.5685  -379.3067  -327.7386 H6            1 RES     
   14121 H6         452.6920  -380.4058  -328.8521 H6            1 RES     
   14122 H6         451.9181  -377.4791  -328.2246 H6            1 RES     
   14123 H6         451.0390  -378.5535  -329.3714 H6            1 RES     
   14124 H6         452.5802  -376.8960  -330.4418 H6            1 RES     
   14125 H6         453.9769  -377.6125  -329.5594 H6            1 RES     
   14126 H6         453.5903  -379.7976  -330.8222 H6            1 RES     
   14127 H6         452.1444  -379.0527  -331.5973 H6            1 RES     
   14128 H6         453.5962  -377.3472  -332.7065 H6            1 RES     
   14129 H6         454.0132  -379.0404  -333.1516 H6            1 RES     
   14130 H6         455.5684  -377.3032  -331.1262 H6            1 RES     
   14131 H6         455.9281  -379.0264  -331.5523 H6            1 RES     
   14132 H6         456.0618  -377.7274  -332.7972 H6            1 RES     
   14133 H6         453.8865  -376.6726  -323.4861 H6            1 RES     
   14134 H6         455.1897  -377.0554  -322.4110 H6            1 RES     
   14135 H6         452.3193  -376.9752  -321.8658 H6            1 RES     
   14136 H6         452.7891  -378.7056  -321.7148 H6            1 RES     
   14137 H6         454.1536  -376.2830  -320.2905 H6            1 RES     
   14138 H6         454.6784  -377.9596  -320.3275 H6            1 RES     
   14139 H6         452.7236  -378.7872  -319.1958 H6            1 RES     
   14140 H6         453.8025  -377.7333  -318.2599 H6            1 RES     
   14141 H6         452.3381  -375.8371  -318.4876 H6            1 RES     
   14142 H6         451.1234  -376.7915  -319.4329 H6            1 RES     
   14143 H6         450.8604  -378.4050  -317.5796 H6            1 RES     
   14144 H6         452.1452  -377.6108  -316.6070 H6            1 RES     
   14145 H6         449.8694  -377.0879  -315.8083 H6            1 RES     
   14146 H6         449.4688  -376.2917  -317.3760 H6            1 RES     
   14147 H6         451.3199  -374.6041  -316.9248 H6            1 RES     
   14148 H6         450.1333  -374.6584  -315.5779 H6            1 RES     
   14149 H6         451.7241  -375.4846  -315.3977 H6            1 RES     
   14150 C0         457.1256  -381.5320  -322.0323 C0            1 RES     
   14151 C0         456.3549  -382.8619  -322.4608 C0            1 RES     
   14152 C0         457.0633  -384.0431  -321.7157 C0            1 RES     
   14153 C0         456.6636  -385.4586  -322.1791 C0            1 RES     
   14154 C0         457.3656  -386.5878  -321.4044 C0            1 RES     
   14155 C0         458.9024  -386.6009  -321.4881 C0            1 RES     
   14156 C0         459.4794  -386.5982  -322.9134 C0            1 RES     
   14157 C0         458.9942  -387.7791  -323.7726 C0            1 RES     
   14158 C0         459.5758  -387.7590  -325.1955 C0            1 RES     
   14159 C0         461.0972  -387.9908  -325.2239 C0            1 RES     
   14160 C0         461.6618  -388.0960  -326.6492 C0            1 RES     
   14161 C0         461.5429  -386.7948  -327.4428 C0            1 RES     
   14162 C0         454.7794  -383.0482  -322.4622 C0            1 RES     
   14163 C0         453.9529  -383.0800  -321.1455 C0            1 RES     
   14164 C0         453.1392  -381.7908  -320.9330 C0            1 RES     
   14165 C0         452.3440  -381.6924  -319.6416 C0            1 RES     
   14166 C0         451.0951  -382.5557  -319.5322 C0            1 RES     
   14167 C0         450.3797  -382.1518  -318.2268 C0            1 RES     
   14168 C0         449.0141  -382.8100  -318.0216 C0            1 RES     
   14169 C0         447.9774  -382.3252  -319.0362 C0            1 RES     
   14170 H6         457.5473  -381.6784  -321.0106 H6            1 RES     
   14171 H6         458.0585  -381.5504  -322.6400 H6            1 RES     
   14172 H6         456.5925  -382.9651  -323.5447 H6            1 RES     
   14173 H6         456.8617  -383.9579  -320.6260 H6            1 RES     
   14174 H6         458.1583  -383.9334  -321.8702 H6            1 RES     
   14175 H6         456.8616  -385.5584  -323.2669 H6            1 RES     
   14176 H6         455.5844  -385.6313  -322.0013 H6            1 RES     
   14177 H6         456.9759  -387.5544  -321.7891 H6            1 RES     
   14178 H6         457.0771  -386.5296  -320.3318 H6            1 RES     
   14179 H6         459.2647  -387.5037  -320.9493 H6            1 RES     
   14180 H6         459.3062  -385.7161  -320.9512 H6            1 RES     
   14181 H6         459.2152  -385.6450  -323.4194 H6            1 RES     
   14182 H6         460.5831  -386.6321  -322.8099 H6            1 RES     
   14183 H6         457.8909  -387.7174  -323.8774 H6            1 RES     
   14184 H6         459.2433  -388.7431  -323.2785 H6            1 RES     
   14185 H6         459.0898  -388.5782  -325.7690 H6            1 RES     
   14186 H6         459.3120  -386.7934  -325.6769 H6            1 RES     
   14187 H6         461.6336  -387.1799  -324.6896 H6            1 RES     
   14188 H6         461.3096  -388.9516  -324.7060 H6            1 RES     
   14189 H6         461.1499  -388.9163  -327.1977 H6            1 RES     
   14190 H6         462.7407  -388.3515  -326.5731 H6            1 RES     
   14191 H6         460.4821  -386.5131  -327.5994 H6            1 RES     
   14192 H6         462.0691  -385.9724  -326.9129 H6            1 RES     
   14193 H6         462.0111  -386.9302  -328.4404 H6            1 RES     
   14194 H6         454.6161  -384.0352  -322.9326 H6            1 RES     
   14195 H6         454.2695  -382.4458  -323.2373 H6            1 RES     
   14196 H6         453.1834  -383.8766  -321.2484 H6            1 RES     
   14197 H6         454.5939  -383.3470  -320.2810 H6            1 RES     
   14198 H6         452.4696  -381.6102  -321.8044 H6            1 RES     
   14199 H6         453.8110  -380.9439  -320.8480 H6            1 RES     
   14200 H6         453.0173  -381.8450  -318.7702 H6            1 RES     
   14201 H6         451.9607  -380.6588  -319.6256 H6            1 RES     
   14202 H6         450.4541  -382.3372  -320.4123 H6            1 RES     
   14203 H6         451.3524  -383.6353  -319.5255 H6            1 RES     
   14204 H6         451.0403  -382.4229  -317.3740 H6            1 RES     
   14205 H6         450.2267  -381.0483  -318.1956 H6            1 RES     
   14206 H6         448.6540  -382.5161  -317.0112 H6            1 RES     
   14207 H6         449.1128  -383.9131  -318.0564 H6            1 RES     
   14208 H6         448.2518  -382.6201  -320.0685 H6            1 RES     
   14209 H6         446.9923  -382.7757  -318.7969 H6            1 RES     
   14210 H6         447.8789  -381.2185  -318.9874 H6            1 RES     
   14211 C0         464.9997  -374.8638  -330.5565 C0            1 RES     
   14212 C1         464.3853  -374.9247  -329.1406 C1            1 RES     
   14213 C1         465.1598  -374.3034  -328.2136 C1            1 RES     
   14214 S2         464.5683  -374.4307  -326.6527 S2            1 RES     
   14215 C1         463.2493  -375.3768  -327.1586 C1            1 RES     
   14216 C1         463.2963  -375.5801  -328.5422 C1            1 RES     
   14217 C1         466.3236  -373.8154  -328.8462 C1            1 RES     
   14218 C1         466.3113  -374.1874  -330.1547 C1            1 RES     
   14219 C1         467.4951  -373.8643  -330.8070 C1            1 RES     
   14220 C1         468.3756  -373.2021  -329.9350 C1            1 RES     
   14221 S2         467.7149  -373.0321  -328.3799 S2            1 RES     
   14222 H3         462.5906  -376.2168  -329.0410 H3            1 RES     
   14223 H3         467.7087  -374.0971  -331.8434 H3            1 RES     
   14224 N4         471.4204  -371.0956  -330.5196 N4            1 RES     
   14225 C1         470.1235  -371.4493  -330.2806 C1            1 RES     
   14226 C1         469.7461  -372.8025  -330.2342 C1            1 RES     
   14227 C1         470.7369  -373.7690  -330.4160 C1            1 RES     
   14228 N4         470.5180  -375.1067  -330.3383 N4            1 RES     
   14229 S2         472.0339  -375.7239  -330.5685 S2            1 RES     
   14230 N4         472.9807  -374.3817  -330.7695 N4            1 RES     
   14231 C1         472.0798  -373.3762  -330.6431 C1            1 RES     
   14232 C1         472.4013  -372.0229  -330.7066 C1            1 RES     
   14233 H5         469.3780  -370.6724  -330.1345 H5            1 RES     
   14234 C0         464.3099  -373.9914  -331.6636 C0            1 RES     
   14235 C0         464.2221  -372.4263  -331.8204 C0            1 RES     
   14236 C0         463.2899  -372.1914  -333.0607 C0            1 RES     
   14237 C0         463.0774  -370.7379  -333.5017 C0            1 RES     
   14238 C0         462.1030  -370.6244  -334.6978 C0            1 RES     
   14239 C0         462.5592  -371.3100  -336.0046 C0            1 RES     
   14240 C0         463.9398  -370.8676  -336.5205 C0            1 RES     
   14241 C0         464.0346  -369.3512  -336.7655 C0            1 RES     
   14242 C0         465.4295  -368.9050  -337.2266 C0            1 RES     
   14243 C0         465.8021  -369.4297  -338.6235 C0            1 RES     
   14244 C0         467.1496  -368.8842  -339.1225 C0            1 RES     
   14245 C0         468.3396  -369.3667  -338.2921 C0            1 RES     
   14246 C0         463.8019  -371.5493  -330.5959 C0            1 RES     
   14247 C0         462.3648  -371.6987  -330.0085 C0            1 RES     
   14248 C0         462.4708  -372.1143  -328.5381 C0            1 RES     
   14249 C0         461.2130  -372.6342  -327.8478 C0            1 RES     
   14250 C0         460.2203  -371.5847  -327.3696 C0            1 RES     
   14251 C0         459.0608  -372.3208  -326.6659 C0            1 RES     
   14252 C0         458.0672  -371.3977  -325.9568 C0            1 RES     
   14253 C0         458.6853  -370.7043  -324.7409 C0            1 RES     
   14254 H6         463.3000  -374.3106  -331.7073 H6            1 RES     
   14255 H6         464.8015  -374.3126  -332.6096 H6            1 RES     
   14256 H6         465.2463  -372.0751  -332.0778 H6            1 RES     
   14257 H6         462.2855  -372.6199  -332.8506 H6            1 RES     
   14258 H6         463.7204  -372.7512  -333.9184 H6            1 RES     
   14259 H6         464.0516  -370.2669  -333.7445 H6            1 RES     
   14260 H6         462.6124  -370.1689  -332.6715 H6            1 RES     
   14261 H6         461.9294  -369.5473  -334.9001 H6            1 RES     
   14262 H6         461.1175  -371.0533  -334.4103 H6            1 RES     
   14263 H6         461.7965  -371.1013  -336.7877 H6            1 RES     
   14264 H6         462.5796  -372.4116  -335.8620 H6            1 RES     
   14265 H6         464.7186  -371.1728  -335.7902 H6            1 RES     
   14266 H6         464.1295  -371.4161  -337.4665 H6            1 RES     
   14267 H6         463.8408  -368.8214  -335.8106 H6            1 RES     
   14268 H6         463.2679  -369.0310  -337.5047 H6            1 RES     
   14269 H6         465.4310  -367.7937  -337.2628 H6            1 RES     
   14270 H6         466.1729  -369.2294  -336.4685 H6            1 RES     
   14271 H6         465.8392  -370.5388  -338.6349 H6            1 RES     
   14272 H6         465.0175  -369.0975  -339.3378 H6            1 RES     
   14273 H6         467.1267  -367.7726  -339.1308 H6            1 RES     
   14274 H6         467.2985  -369.2341  -340.1668 H6            1 RES     
   14275 H6         468.2770  -369.0036  -337.2465 H6            1 RES     
   14276 H6         468.3835  -370.4766  -338.2949 H6            1 RES     
   14277 H6         469.2791  -368.9730  -338.7332 H6            1 RES     
   14278 H6         463.9174  -370.4843  -330.8904 H6            1 RES     
   14279 H6         464.5741  -371.6641  -329.8054 H6            1 RES     
   14280 H6         461.8155  -370.7317  -330.0574 H6            1 RES     
   14281 H6         461.7923  -372.4508  -330.5884 H6            1 RES     
   14282 H6         462.9883  -371.3505  -327.9204 H6            1 RES     
   14283 H6         463.0999  -372.9782  -328.5727 H6            1 RES     
   14284 H6         460.7274  -373.3683  -328.4954 H6            1 RES     
   14285 H6         461.5568  -373.1767  -326.9378 H6            1 RES     
   14286 H6         460.7590  -370.9235  -326.6582 H6            1 RES     
   14287 H6         459.8340  -370.9761  -328.2143 H6            1 RES     
   14288 H6         458.5146  -372.9143  -327.4337 H6            1 RES     
   14289 H6         459.4559  -373.0353  -325.9084 H6            1 RES     
   14290 H6         457.2267  -372.0259  -325.5881 H6            1 RES     
   14291 H6         457.6606  -370.6493  -326.6691 H6            1 RES     
   14292 H6         459.5100  -370.0257  -325.0354 H6            1 RES     
   14293 H6         457.9101  -370.1036  -324.2233 H6            1 RES     
   14294 H6         459.0765  -371.4624  -324.0261 H6            1 RES     
   14295 C0         465.1620  -376.3713  -331.0000 C0            1 RES     
   14296 C0         464.3475  -377.0896  -332.1690 C0            1 RES     
   14297 C0         464.4258  -378.6272  -331.8825 C0            1 RES     
   14298 C0         463.9372  -379.5433  -333.0228 C0            1 RES     
   14299 C0         464.0097  -381.0438  -332.6891 C0            1 RES     
   14300 C0         465.4116  -381.5892  -332.3632 C0            1 RES     
   14301 C0         466.4865  -381.3054  -333.4255 C0            1 RES     
   14302 C0         466.1289  -381.8507  -334.8194 C0            1 RES     
   14303 C0         467.2109  -381.5545  -335.8705 C0            1 RES     
   14304 C0         468.5288  -382.3023  -335.6005 C0            1 RES     
   14305 C0         469.5688  -382.1072  -336.7148 C0            1 RES     
   14306 C0         470.0624  -380.6652  -336.8337 C0            1 RES     
   14307 C0         462.9002  -376.6729  -332.6679 C0            1 RES     
   14308 C0         461.6387  -376.8529  -331.7768 C0            1 RES     
   14309 C0         461.1146  -375.5145  -331.2259 C0            1 RES     
   14310 C0         459.9198  -375.5847  -330.2893 C0            1 RES     
   14311 C0         458.5706  -375.9107  -330.9142 C0            1 RES     
   14312 C0         457.5092  -375.7511  -329.8066 C0            1 RES     
   14313 C0         456.0638  -375.8903  -330.2878 C0            1 RES     
   14314 C0         455.6438  -374.7410  -331.2052 C0            1 RES     
   14315 H6         465.1051  -377.0055  -330.0848 H6            1 RES     
   14316 H6         466.2292  -376.5189  -331.2815 H6            1 RES     
   14317 H6         464.9620  -376.8911  -333.0773 H6            1 RES     
   14318 H6         463.8371  -378.8565  -330.9681 H6            1 RES     
   14319 H6         465.4882  -378.8801  -331.6773 H6            1 RES     
   14320 H6         464.5187  -379.3259  -333.9432 H6            1 RES     
   14321 H6         462.8658  -379.3586  -333.2325 H6            1 RES     
   14322 H6         463.5986  -381.6030  -333.5566 H6            1 RES     
   14323 H6         463.3442  -381.2587  -331.8243 H6            1 RES     
   14324 H6         465.3236  -382.6881  -332.2174 H6            1 RES     
   14325 H6         465.7574  -381.1585  -331.3994 H6            1 RES     
   14326 H6         466.6605  -380.2103  -333.4949 H6            1 RES     
   14327 H6         467.4237  -381.7749  -333.0630 H6            1 RES     
   14328 H6         465.1987  -381.3570  -335.1702 H6            1 RES     
   14329 H6         465.9438  -382.9456  -334.7690 H6            1 RES     
   14330 H6         466.8206  -381.8858  -336.8574 H6            1 RES     
   14331 H6         467.3782  -380.4573  -335.9131 H6            1 RES     
   14332 H6         468.9777  -381.9830  -334.6374 H6            1 RES     
   14333 H6         468.3024  -383.3891  -335.5380 H6            1 RES     
   14334 H6         469.1453  -382.4386  -337.6877 H6            1 RES     
   14335 H6         470.4455  -382.7495  -336.4824 H6            1 RES     
   14336 H6         469.2392  -379.9791  -337.1180 H6            1 RES     
   14337 H6         470.5064  -380.3308  -335.8720 H6            1 RES     
   14338 H6         470.8418  -380.6087  -337.6224 H6            1 RES     
   14339 H6         462.7203  -377.3031  -333.5582 H6            1 RES     
   14340 H6         462.8827  -375.6977  -333.1898 H6            1 RES     
   14341 H6         460.8157  -377.2235  -332.4268 H6            1 RES     
   14342 H6         461.8126  -377.6173  -330.9926 H6            1 RES     
   14343 H6         460.8987  -374.8120  -332.0626 H6            1 RES     
   14344 H6         461.8686  -375.0585  -330.5941 H6            1 RES     
   14345 H6         460.1451  -376.2645  -329.4390 H6            1 RES     
   14346 H6         459.8003  -374.5569  -329.9086 H6            1 RES     
   14347 H6         458.3921  -375.1829  -331.7338 H6            1 RES     
   14348 H6         458.5585  -376.9400  -331.3295 H6            1 RES     
   14349 H6         457.7043  -376.5222  -329.0291 H6            1 RES     
   14350 H6         457.6049  -374.7526  -329.3209 H6            1 RES     
   14351 H6         455.4110  -375.8539  -329.3881 H6            1 RES     
   14352 H6         455.9212  -376.8674  -330.7905 H6            1 RES     
   14353 H6         456.2286  -374.7393  -332.1465 H6            1 RES     
   14354 H6         454.5707  -374.8519  -331.4634 H6            1 RES     
   14355 H6         455.7819  -373.7658  -330.6887 H6            1 RES     
   14356 C0         477.0134  -370.5485  -333.1829 C0            1 RES     
   14357 C1         475.8959  -370.8656  -332.1649 C1            1 RES     
   14358 C1         476.3612  -370.9331  -330.8905 C1            1 RES     
   14359 S2         475.1925  -371.3660  -329.7728 S2            1 RES     
   14360 C1         474.0039  -371.5252  -330.9781 C1            1 RES     
   14361 C1         474.5437  -371.2396  -332.2370 C1            1 RES     
   14362 C1         477.7565  -370.7192  -330.9035 C1            1 RES     
   14363 C1         478.1765  -370.5836  -332.1904 C1            1 RES     
   14364 C1         479.5609  -370.5127  -332.2897 C1            1 RES     
   14365 C1         480.1514  -370.5647  -331.0158 C1            1 RES     
   14366 S2         478.9892  -370.7135  -329.7868 S2            1 RES     
   14367 H3         473.9684  -371.3587  -333.1354 H3            1 RES     
   14368 H3         480.1067  -370.4337  -333.2223 H3            1 RES     
   14369 N4         483.5658  -369.6584  -329.7623 N4            1 RES     
   14370 C1         482.2359  -369.5714  -330.0588 C1            1 RES     
   14371 C1         481.5809  -370.6182  -330.7304 C1            1 RES     
   14372 C1         482.3226  -371.7532  -331.0627 C1            1 RES     
   14373 N4         481.8003  -372.8554  -331.6591 N4            1 RES     
   14374 S2         483.1072  -373.8644  -331.7369 S2            1 RES     
   14375 N4         484.3286  -372.9823  -331.0526 N4            1 RES     
   14376 C1         483.6976  -371.8273  -330.7263 C1            1 RES     
   14377 C1         484.3093  -370.7541  -330.0838 C1            1 RES     
   14378 H5         481.6851  -368.6777  -329.7784 H5            1 RES     
   14379 C0         477.0253  -369.1593  -333.9129 C0            1 RES     
   14380 C0         477.3552  -367.7209  -333.3615 C0            1 RES     
   14381 C0         477.0617  -366.7477  -334.5569 C0            1 RES     
   14382 C0         477.3671  -365.2617  -334.3310 C0            1 RES     
   14383 C0         476.9917  -364.3931  -335.5547 C0            1 RES     
   14384 C0         477.7598  -364.7007  -336.8591 C0            1 RES     
   14385 C0         479.2928  -364.6460  -336.7365 C0            1 RES     
   14386 C0         479.8095  -363.2860  -336.2343 C0            1 RES     
   14387 C0         481.3345  -363.2522  -336.0596 C0            1 RES     
   14388 C0         482.0991  -363.3590  -337.3898 C0            1 RES     
   14389 C0         483.6186  -363.2089  -337.2148 C0            1 RES     
   14390 C0         484.2482  -364.3488  -336.4132 C0            1 RES     
   14391 C0         476.6939  -367.2328  -332.0313 C0            1 RES     
   14392 C0         475.1474  -367.0384  -331.9752 C0            1 RES     
   14393 C0         474.5730  -367.9447  -330.8821 C0            1 RES     
   14394 C0         473.0641  -368.1717  -330.8589 C0            1 RES     
   14395 C0         472.2228  -367.0667  -330.2370 C0            1 RES     
   14396 C0         470.7485  -367.5211  -330.2744 C0            1 RES     
   14397 C0         469.7878  -366.6049  -329.5130 C0            1 RES     
   14398 C0         470.0161  -366.6527  -328.0008 C0            1 RES     
   14399 H6         476.0702  -369.0500  -334.3595 H6            1 RES     
   14400 H6         477.7642  -369.2898  -334.7355 H6            1 RES     
   14401 H6         478.4484  -367.7038  -333.1533 H6            1 RES     
   14402 H6         475.9877  -366.8225  -334.8352 H6            1 RES     
   14403 H6         477.6586  -367.0924  -335.4283 H6            1 RES     
   14404 H6         478.4364  -365.1279  -334.0692 H6            1 RES     
   14405 H6         476.7523  -364.8869  -333.4880 H6            1 RES     
   14406 H6         477.1547  -363.3291  -335.2854 H6            1 RES     
   14407 H6         475.9041  -364.5021  -335.7623 H6            1 RES     
   14408 H6         477.4325  -363.9703  -337.6322 H6            1 RES     
   14409 H6         477.4780  -365.7091  -337.2306 H6            1 RES     
   14410 H6         479.6338  -365.4475  -336.0477 H6            1 RES     
   14411 H6         479.7117  -364.8622  -337.7412 H6            1 RES     
   14412 H6         479.3791  -363.0876  -335.2316 H6            1 RES     
   14413 H6         479.4861  -362.4730  -336.9207 H6            1 RES     
   14414 H6         481.5963  -362.2802  -335.5873 H6            1 RES     
   14415 H6         481.6289  -364.0669  -335.3651 H6            1 RES     
   14416 H6         481.8909  -364.3267  -337.8916 H6            1 RES     
   14417 H6         481.7525  -362.5376  -338.0542 H6            1 RES     
   14418 H6         483.8477  -362.2373  -336.7250 H6            1 RES     
   14419 H6         484.0838  -363.2047  -338.2242 H6            1 RES     
   14420 H6         483.8625  -364.3737  -335.3741 H6            1 RES     
   14421 H6         484.0426  -365.3227  -336.9062 H6            1 RES     
   14422 H6         485.3473  -364.2003  -336.3646 H6            1 RES     
   14423 H6         477.1486  -366.2532  -331.7702 H6            1 RES     
   14424 H6         477.0477  -367.8882  -331.2068 H6            1 RES     
   14425 H6         474.8905  -365.9850  -331.7235 H6            1 RES     
   14426 H6         474.6972  -367.2780  -332.9599 H6            1 RES     
   14427 H6         474.9619  -367.6881  -329.8743 H6            1 RES     
   14428 H6         474.9568  -368.9095  -331.1374 H6            1 RES     
   14429 H6         472.7221  -368.4040  -331.8705 H6            1 RES     
   14430 H6         472.8938  -369.0809  -330.2386 H6            1 RES     
   14431 H6         472.5711  -366.9389  -329.1902 H6            1 RES     
   14432 H6         472.3443  -366.1074  -330.7830 H6            1 RES     
   14433 H6         470.4306  -367.5683  -331.3407 H6            1 RES     
   14434 H6         470.6456  -368.5450  -329.8483 H6            1 RES     
   14435 H6         468.7535  -366.9671  -329.7035 H6            1 RES     
   14436 H6         469.8701  -365.5632  -329.8883 H6            1 RES     
   14437 H6         471.0182  -366.2668  -327.7285 H6            1 RES     
   14438 H6         469.2540  -366.0288  -327.4913 H6            1 RES     
   14439 H6         469.9169  -367.6981  -327.6319 H6            1 RES     
   14440 C0         476.9983  -371.7569  -334.2004 C0            1 RES     
   14441 C0         476.5707  -371.6748  -335.7355 C0            1 RES     
   14442 C0         476.1876  -373.1307  -336.1664 C0            1 RES     
   14443 C0         475.9959  -373.3488  -337.6809 C0            1 RES     
   14444 C0         475.5972  -374.7870  -338.0563 C0            1 RES     
   14445 C0         476.6000  -375.8844  -337.6575 C0            1 RES     
   14446 C0         478.0394  -375.6658  -338.1526 C0            1 RES     
   14447 C0         478.1462  -375.5239  -339.6812 C0            1 RES     
   14448 C0         479.5902  -375.3009  -340.1592 C0            1 RES     
   14449 C0         480.4951  -376.5231  -339.9216 C0            1 RES     
   14450 C0         481.9040  -376.3503  -340.5102 C0            1 RES     
   14451 C0         482.7107  -375.2443  -339.8298 C0            1 RES     
   14452 C0         475.5669  -370.6121  -336.3519 C0            1 RES     
   14453 C0         474.0511  -370.6135  -336.0047 C0            1 RES     
   14454 C0         473.6636  -369.4558  -335.0672 C0            1 RES     
   14455 C0         472.2139  -369.4026  -334.6141 C0            1 RES     
   14456 C0         471.1825  -368.9738  -335.6482 C0            1 RES     
   14457 C0         469.8357  -368.8300  -334.9103 C0            1 RES     
   14458 C0         468.7033  -368.2544  -335.7627 C0            1 RES     
   14459 C0         468.9430  -366.7905  -336.1348 C0            1 RES     
   14460 H6         476.4479  -372.6003  -333.7222 H6            1 RES     
   14461 H6         478.0288  -372.1780  -334.2272 H6            1 RES     
   14462 H6         477.5198  -371.4143  -336.2586 H6            1 RES     
   14463 H6         475.2525  -373.4293  -335.6451 H6            1 RES     
   14464 H6         476.9995  -373.8094  -335.8271 H6            1 RES     
   14465 H6         476.9243  -373.0559  -338.2145 H6            1 RES     
   14466 H6         475.1626  -372.7243  -338.0572 H6            1 RES     
   14467 H6         475.4468  -374.8195  -339.1566 H6            1 RES     
   14468 H6         474.6162  -375.0279  -337.5910 H6            1 RES     
   14469 H6         476.2208  -376.8519  -338.0535 H6            1 RES     
   14470 H6         476.6260  -375.9723  -336.5504 H6            1 RES     
   14471 H6         478.4644  -374.7595  -337.6706 H6            1 RES     
   14472 H6         478.6298  -376.5400  -337.8101 H6            1 RES     
   14473 H6         477.5628  -374.6353  -340.0009 H6            1 RES     
   14474 H6         477.7186  -376.4193  -340.1821 H6            1 RES     
   14475 H6         479.5556  -375.1029  -341.2527 H6            1 RES     
   14476 H6         479.9994  -374.3997  -339.6553 H6            1 RES     
   14477 H6         480.5887  -376.7448  -338.8385 H6            1 RES     
   14478 H6         480.0276  -377.4006  -340.4194 H6            1 RES     
   14479 H6         481.8342  -376.1451  -341.6006 H6            1 RES     
   14480 H6         482.4531  -377.3067  -340.3728 H6            1 RES     
   14481 H6         482.2394  -374.2518  -339.9776 H6            1 RES     
   14482 H6         482.8038  -375.4507  -338.7423 H6            1 RES     
   14483 H6         483.7285  -375.2085  -340.2720 H6            1 RES     
   14484 H6         475.6159  -370.7827  -337.4430 H6            1 RES     
   14485 H6         475.9720  -369.5827  -336.3601 H6            1 RES     
   14486 H6         473.4894  -370.4074  -336.9423 H6            1 RES     
   14487 H6         473.7293  -371.6086  -335.6365 H6            1 RES     
   14488 H6         473.9548  -368.4805  -335.5191 H6            1 RES     
   14489 H6         474.1898  -369.5566  -334.1245 H6            1 RES     
   14490 H6         471.9308  -370.3664  -334.1378 H6            1 RES     
   14491 H6         472.1856  -368.6026  -333.8560 H6            1 RES     
   14492 H6         471.5060  -367.9963  -336.0642 H6            1 RES     
   14493 H6         471.1066  -369.7149  -336.4710 H6            1 RES     
   14494 H6         469.5339  -369.8365  -334.5453 H6            1 RES     
   14495 H6         469.9517  -368.1705  -334.0195 H6            1 RES     
   14496 H6         467.7756  -368.2949  -335.1506 H6            1 RES     
   14497 H6         468.5568  -368.8724  -336.6706 H6            1 RES     
   14498 H6         469.8347  -366.6778  -336.7830 H6            1 RES     
   14499 H6         468.0617  -366.4039  -336.6866 H6            1 RES     
   14500 H6         469.0797  -366.1772  -335.2172 H6            1 RES     
   14501 C0         489.7250  -370.3139  -330.3175 C0            1 RES     
   14502 C1         488.2577  -370.5304  -329.8864 C1            1 RES     
   14503 C1         488.1580  -371.1999  -328.7086 C1            1 RES     
   14504 S2         486.5803  -371.5321  -328.2585 S2            1 RES     
   14505 C1         485.9568  -370.8174  -329.6696 C1            1 RES     
   14506 C1         486.9959  -370.3332  -330.4718 C1            1 RES     
   14507 C1         489.4562  -371.5217  -328.2569 C1            1 RES     
   14508 C1         490.3661  -371.1136  -329.1823 C1            1 RES     
   14509 C1         491.6566  -371.5251  -328.8716 C1            1 RES     
   14510 C1         491.6724  -372.2269  -327.6544 C1            1 RES     
   14511 S2         490.1196  -372.3545  -326.9791 S2            1 RES     
   14512 H3         486.8085  -369.9147  -331.4424 H3            1 RES     
   14513 H3         492.5272  -371.3344  -329.4876 H3            1 RES     
   14514 N4         494.4294  -373.1282  -325.2802 N4            1 RES     
   14515 C1         493.3778  -372.4633  -325.8425 C1            1 RES     
   14516 C1         492.8247  -372.8954  -327.0603 C1            1 RES     
   14517 C1         493.3658  -374.0327  -327.6625 C1            1 RES     
   14518 N4         492.8893  -374.5874  -328.8065 N4            1 RES     
   14519 S2         493.8630  -375.9108  -328.9864 S2            1 RES     
   14520 N4         494.8803  -375.8329  -327.6836 N4            1 RES     
   14521 C1         494.4448  -374.7168  -327.0485 C1            1 RES     
   14522 C1         494.9766  -374.2360  -325.8549 C1            1 RES     
   14523 H5         492.9742  -371.5865  -325.3436 H5            1 RES     
   14524 C0         490.3298  -368.8659  -330.3080 C0            1 RES     
   14525 C0         490.7267  -367.9348  -329.1008 C0            1 RES     
   14526 C0         491.1493  -366.5732  -329.7564 C0            1 RES     
   14527 C0         491.6625  -365.4796  -328.8115 C0            1 RES     
   14528 C0         492.0000  -364.1686  -329.5600 C0            1 RES     
   14529 C0         493.1293  -364.2647  -330.6094 C0            1 RES     
   14530 C0         494.4619  -364.8214  -330.0780 C0            1 RES     
   14531 C0         495.0274  -364.0095  -328.8991 C0            1 RES     
   14532 C0         496.3278  -364.5995  -328.3347 C0            1 RES     
   14533 C0         497.5086  -364.5119  -329.3164 C0            1 RES     
   14534 C0         498.8298  -364.9995  -328.7006 C0            1 RES     
   14535 C0         498.8247  -366.4920  -328.3679 C0            1 RES     
   14536 C0         489.7225  -367.7308  -327.9196 C0            1 RES     
   14537 C0         488.3629  -367.0157  -328.1896 C0            1 RES     
   14538 C0         487.2204  -367.9661  -327.8187 C0            1 RES     
   14539 C0         485.8140  -367.6174  -328.2974 C0            1 RES     
   14540 C0         485.0638  -366.5697  -327.4882 C0            1 RES     
   14541 C0         483.6617  -366.4091  -328.1124 C0            1 RES     
   14542 C0         482.7082  -365.5290  -327.3010 C0            1 RES     
   14543 C0         482.3081  -366.1768  -325.9738 C0            1 RES     
   14544 H6         489.6766  -368.2670  -330.8898 H6            1 RES     
   14545 H6         491.2833  -368.9649  -330.8744 H6            1 RES     
   14546 H6         491.6246  -368.3925  -328.6288 H6            1 RES     
   14547 H6         490.2831  -366.1482  -330.3092 H6            1 RES     
   14548 H6         491.9477  -366.7884  -330.4985 H6            1 RES     
   14549 H6         492.5440  -365.8462  -328.2472 H6            1 RES     
   14550 H6         490.8659  -365.2220  -328.0846 H6            1 RES     
   14551 H6         492.2756  -363.4023  -328.8063 H6            1 RES     
   14552 H6         491.0863  -363.7925  -330.0715 H6            1 RES     
   14553 H6         493.3023  -363.2465  -331.0238 H6            1 RES     
   14554 H6         492.8002  -364.9041  -331.4562 H6            1 RES     
   14555 H6         494.3185  -365.8769  -329.7640 H6            1 RES     
   14556 H6         495.1822  -364.8144  -330.9222 H6            1 RES     
   14557 H6         494.2938  -364.0272  -328.0676 H6            1 RES     
   14558 H6         495.1881  -362.9514  -329.2012 H6            1 RES     
   14559 H6         496.5915  -364.0190  -327.4238 H6            1 RES     
   14560 H6         496.1376  -365.6512  -328.0342 H6            1 RES     
   14561 H6         497.3052  -365.0981  -330.2364 H6            1 RES     
   14562 H6         497.6418  -363.4456  -329.6019 H6            1 RES     
   14563 H6         499.0573  -364.4134  -327.7835 H6            1 RES     
   14564 H6         499.6420  -364.8172  -329.4370 H6            1 RES     
   14565 H6         498.0671  -366.7315  -327.5947 H6            1 RES     
   14566 H6         498.6189  -367.0875  -329.2826 H6            1 RES     
   14567 H6         499.8197  -366.7832  -327.9709 H6            1 RES     
   14568 H6         490.2429  -367.1415  -327.1346 H6            1 RES     
   14569 H6         489.5696  -368.7117  -327.4206 H6            1 RES     
   14570 H6         488.2682  -366.0986  -327.5659 H6            1 RES     
   14571 H6         488.2944  -366.7172  -329.2554 H6            1 RES     
   14572 H6         487.2290  -368.2353  -326.7415 H6            1 RES     
   14573 H6         487.4495  -368.8519  -328.3721 H6            1 RES     
   14574 H6         485.8541  -367.3430  -329.3544 H6            1 RES     
   14575 H6         485.2171  -368.5549  -328.2247 H6            1 RES     
   14576 H6         484.9923  -366.9488  -326.4467 H6            1 RES     
   14577 H6         485.5990  -365.5967  -327.4876 H6            1 RES     
   14578 H6         483.7858  -365.9648  -329.1260 H6            1 RES     
   14579 H6         483.1758  -367.4033  -328.2394 H6            1 RES     
   14580 H6         481.7794  -365.3971  -327.8985 H6            1 RES     
   14581 H6         483.1597  -364.5295  -327.1279 H6            1 RES     
   14582 H6         483.1813  -366.3047  -325.3042 H6            1 RES     
   14583 H6         481.5661  -365.5348  -325.4571 H6            1 RES     
   14584 H6         481.8432  -367.1711  -326.1583 H6            1 RES     
   14585 C0         489.8430  -371.0005  -331.7354 C0            1 RES     
   14586 C0         490.0819  -370.2421  -333.1188 C0            1 RES     
   14587 C0         489.5863  -371.2105  -334.2453 C0            1 RES     
   14588 C0         489.9611  -370.8050  -335.6852 C0            1 RES     
   14589 C0         489.4339  -371.7715  -336.7604 C0            1 RES     
   14590 C0         489.9295  -373.2248  -336.6539 C0            1 RES     
   14591 C0         491.4571  -373.3921  -336.5994 C0            1 RES     
   14592 C0         492.1837  -372.7801  -337.8100 C0            1 RES     
   14593 C0         493.7097  -372.9512  -337.7377 C0            1 RES     
   14594 C0         494.1536  -374.4207  -337.8508 C0            1 RES     
   14595 C0         495.6805  -374.5840  -337.9047 C0            1 RES     
   14596 C0         496.3788  -374.1595  -336.6127 C0            1 RES     
   14597 C0         489.6630  -368.7432  -333.4268 C0            1 RES     
   14598 C0         488.1733  -368.3092  -333.5291 C0            1 RES     
   14599 C0         487.7159  -367.4913  -332.3080 C0            1 RES     
   14600 C0         486.2558  -367.0708  -332.2780 C0            1 RES     
   14601 C0         485.8358  -365.9650  -333.2361 C0            1 RES     
   14602 C0         484.3758  -365.6026  -332.8954 C0            1 RES     
   14603 C0         483.8268  -364.3957  -333.6586 C0            1 RES     
   14604 C0         484.5112  -363.0903  -333.2506 C0            1 RES     
   14605 H6         488.9772  -371.6928  -331.8538 H6            1 RES     
   14606 H6         490.6802  -371.7325  -331.6784 H6            1 RES     
   14607 H6         491.1920  -370.1839  -333.1979 H6            1 RES     
   14608 H6         488.4808  -371.3061  -334.1814 H6            1 RES     
   14609 H6         490.0276  -372.2115  -334.0502 H6            1 RES     
   14610 H6         491.0642  -370.7076  -335.7639 H6            1 RES     
   14611 H6         489.5032  -369.8301  -335.9419 H6            1 RES     
   14612 H6         489.7240  -371.3641  -337.7524 H6            1 RES     
   14613 H6         488.3221  -371.7810  -336.7301 H6            1 RES     
   14614 H6         489.5319  -373.7847  -337.5286 H6            1 RES     
   14615 H6         489.4988  -373.6930  -335.7432 H6            1 RES     
   14616 H6         491.8482  -372.9316  -335.6670 H6            1 RES     
   14617 H6         491.6561  -374.4819  -336.5481 H6            1 RES     
   14618 H6         491.9852  -371.6882  -337.8335 H6            1 RES     
   14619 H6         491.8002  -373.2237  -338.7542 H6            1 RES     
   14620 H6         494.1518  -372.3894  -338.5892 H6            1 RES     
   14621 H6         494.0769  -372.4968  -336.7931 H6            1 RES     
   14622 H6         493.7630  -375.0209  -337.0033 H6            1 RES     
   14623 H6         493.7372  -374.8353  -338.7947 H6            1 RES     
   14624 H6         496.0915  -374.0042  -338.7595 H6            1 RES     
   14625 H6         495.9050  -375.6589  -338.0762 H6            1 RES     
   14626 H6         496.2360  -373.0783  -336.4133 H6            1 RES     
   14627 H6         495.9895  -374.7479  -335.7547 H6            1 RES     
   14628 H6         497.4689  -374.3485  -336.7063 H6            1 RES     
   14629 H6         490.0971  -368.5313  -334.4211 H6            1 RES     
   14630 H6         490.2559  -367.9996  -332.8618 H6            1 RES     
   14631 H6         488.0853  -367.6011  -334.3825 H6            1 RES     
   14632 H6         487.5211  -369.1782  -333.7500 H6            1 RES     
   14633 H6         488.3693  -366.5992  -332.1756 H6            1 RES     
   14634 H6         487.7935  -368.0971  -331.4121 H6            1 RES     
   14635 H6         485.6027  -367.9644  -332.3824 H6            1 RES     
   14636 H6         486.1103  -366.6315  -331.2774 H6            1 RES     
   14637 H6         486.5044  -365.0953  -333.0636 H6            1 RES     
   14638 H6         485.9267  -366.2929  -334.2926 H6            1 RES     
   14639 H6         483.7402  -366.4876  -333.1188 H6            1 RES     
   14640 H6         484.2759  -365.3833  -331.8073 H6            1 RES     
   14641 H6         482.7495  -364.3025  -333.3986 H6            1 RES     
   14642 H6         483.9154  -364.5620  -334.7505 H6            1 RES     
   14643 H6         485.5865  -363.0955  -333.5181 H6            1 RES     
   14644 H6         484.0266  -362.2427  -333.7772 H6            1 RES     
   14645 H6         484.4090  -362.9279  -332.1551 H6            1 RES     
   14646 C0         500.0005  -375.7590  -324.4341 C0            1 RES     
   14647 C1         498.4735  -375.5576  -324.5496 C1            1 RES     
   14648 C1         497.7741  -376.5066  -323.8747 C1            1 RES     
   14649 S2         496.1153  -376.3712  -324.0553 S2            1 RES     
   14650 C1         496.2709  -375.0375  -325.0983 C1            1 RES     
   14651 C1         497.6205  -374.7225  -325.2904 C1            1 RES     
   14652 C1         498.6844  -377.4163  -323.2947 C1            1 RES     
   14653 C1         499.9503  -377.0772  -323.6601 C1            1 RES     
   14654 C1         500.8892  -378.0129  -323.2429 C1            1 RES     
   14655 C1         500.2703  -379.0458  -322.5188 C1            1 RES     
   14656 S2         498.5908  -378.8207  -322.4083 S2            1 RES     
   14657 H3         497.9267  -373.9567  -325.9774 H3            1 RES     
   14658 H3         501.9504  -377.9542  -323.4533 H3            1 RES     
   14659 N4         501.6003  -381.6553  -320.1796 N4            1 RES     
   14660 C1         501.0294  -380.5013  -320.6340 C1            1 RES     
   14661 C1         500.9178  -380.2508  -322.0126 C1            1 RES     
   14662 C1         501.3851  -381.2233  -322.8984 C1            1 RES     
   14663 N4         501.2858  -381.1324  -324.2495 N4            1 RES     
   14664 S2         501.9323  -382.5701  -324.7461 S2            1 RES     
   14665 N4         502.3466  -383.3260  -323.3335 N4            1 RES     
   14666 C1         501.9559  -382.4219  -322.4015 C1            1 RES     
   14667 C1         502.0688  -382.6140  -321.0271 C1            1 RES     
   14668 H5         500.6676  -379.7685  -319.9180 H5            1 RES     
   14669 C0         500.8575  -374.7330  -323.6123 C0            1 RES     
   14670 C0         500.9444  -374.4915  -322.0579 C0            1 RES     
   14671 C0         501.8806  -373.2434  -321.8899 C0            1 RES     
   14672 C0         502.2103  -372.8134  -320.4550 C0            1 RES     
   14673 C0         503.0958  -371.5458  -320.4114 C0            1 RES     
   14674 C0         504.4944  -371.6797  -321.0530 C0            1 RES     
   14675 C0         505.3522  -372.8326  -320.5024 C0            1 RES     
   14676 C0         505.5744  -372.7460  -318.9819 C0            1 RES     
   14677 C0         506.3831  -373.9272  -318.4266 C0            1 RES     
   14678 C0         507.8418  -373.9447  -318.9139 C0            1 RES     
   14679 C0         508.6716  -375.0628  -318.2630 C0            1 RES     
   14680 C0         508.2058  -376.4653  -318.6560 C0            1 RES     
   14681 C0         499.6297  -374.3558  -321.2223 C0            1 RES     
   14682 C0         498.6804  -373.1466  -321.4856 C0            1 RES     
   14683 C0         497.3044  -373.6773  -321.8991 C0            1 RES     
   14684 C0         496.3139  -372.6953  -322.5184 C0            1 RES     
   14685 C0         495.5587  -371.7952  -321.5515 C0            1 RES     
   14686 C0         494.5876  -370.9270  -322.3787 C0            1 RES     
   14687 C0         493.6130  -370.0979  -321.5391 C0            1 RES     
   14688 C0         492.5915  -370.9698  -320.8059 C0            1 RES     
   14689 H6         500.6354  -373.7752  -324.0086 H6            1 RES     
   14690 H6         501.9091  -374.9720  -323.8897 H6            1 RES     
   14691 H6         501.4595  -375.3790  -321.6271 H6            1 RES     
   14692 H6         501.4185  -372.3678  -322.3960 H6            1 RES     
   14693 H6         502.8369  -373.4652  -322.4102 H6            1 RES     
   14694 H6         502.6947  -373.6482  -319.9087 H6            1 RES     
   14695 H6         501.2711  -372.5504  -319.9279 H6            1 RES     
   14696 H6         503.2159  -371.2454  -319.3500 H6            1 RES     
   14697 H6         502.5642  -370.7093  -320.9169 H6            1 RES     
   14698 H6         505.0370  -370.7202  -320.9002 H6            1 RES     
   14699 H6         504.3912  -371.8187  -322.1504 H6            1 RES     
   14700 H6         504.8672  -373.8003  -320.7499 H6            1 RES     
   14701 H6         506.3280  -372.7985  -321.0298 H6            1 RES     
   14702 H6         504.5893  -372.7799  -318.4736 H6            1 RES     
   14703 H6         506.0708  -371.7864  -318.7185 H6            1 RES     
   14704 H6         506.3897  -373.8373  -317.3184 H6            1 RES     
   14705 H6         505.8624  -374.8699  -318.6962 H6            1 RES     
   14706 H6         507.8914  -374.0584  -320.0166 H6            1 RES     
   14707 H6         508.3090  -372.9737  -318.6399 H6            1 RES     
   14708 H6         508.6447  -374.9570  -317.1565 H6            1 RES     
   14709 H6         509.7260  -374.9483  -318.5951 H6            1 RES     
   14710 H6         507.1731  -376.6620  -318.3040 H6            1 RES     
   14711 H6         508.2491  -376.5880  -319.7591 H6            1 RES     
   14712 H6         508.8738  -377.2186  -318.1884 H6            1 RES     
   14713 H6         499.9169  -374.3088  -320.1501 H6            1 RES     
   14714 H6         499.0801  -375.3196  -321.2809 H6            1 RES     
   14715 H6         498.5543  -372.5354  -320.5639 H6            1 RES     
   14716 H6         499.1035  -372.4951  -322.2770 H6            1 RES     
   14717 H6         496.8297  -374.2855  -321.1005 H6            1 RES     
   14718 H6         497.5297  -374.3350  -322.7115 H6            1 RES     
   14719 H6         496.8253  -372.1075  -323.2847 H6            1 RES     
   14720 H6         495.5448  -373.3116  -323.0372 H6            1 RES     
   14721 H6         495.0023  -372.4565  -320.8540 H6            1 RES     
   14722 H6         496.2519  -371.1509  -320.9704 H6            1 RES     
   14723 H6         495.1945  -370.2381  -323.0090 H6            1 RES     
   14724 H6         493.9834  -371.5638  -323.0643 H6            1 RES     
   14725 H6         493.0475  -369.4371  -322.2324 H6            1 RES     
   14726 H6         494.1697  -369.4597  -320.8209 H6            1 RES     
   14727 H6         493.0800  -371.6318  -320.0640 H6            1 RES     
   14728 H6         491.8686  -370.3220  -320.2698 H6            1 RES     
   14729 H6         492.0286  -371.5946  -321.5350 H6            1 RES     
   14730 C0         500.5101  -375.9051  -325.9223 C0            1 RES     
   14731 C0         501.4342  -374.8591  -326.6957 C0            1 RES     
   14732 C0         501.2193  -375.1246  -328.2240 C0            1 RES     
   14733 C0         502.2086  -374.4138  -329.1695 C0            1 RES     
   14734 C0         501.9458  -374.6838  -330.6615 C0            1 RES     
   14735 C0         502.0244  -376.1576  -331.0982 C0            1 RES     
   14736 C0         503.3297  -376.8806  -330.7266 C0            1 RES     
   14737 C0         504.5890  -376.1996  -331.2910 C0            1 RES     
   14738 C0         505.8850  -376.9315  -330.9065 C0            1 RES     
   14739 C0         506.0000  -378.3244  -331.5512 C0            1 RES     
   14740 C0         507.3481  -379.0063  -331.2705 C0            1 RES     
   14741 C0         507.5586  -379.3421  -329.7940 C0            1 RES     
   14742 C0         501.5132  -373.3044  -326.3900 C0            1 RES     
   14743 C0         500.3196  -372.3483  -326.6717 C0            1 RES     
   14744 C0         499.6134  -371.8964  -325.3808 C0            1 RES     
   14745 C0         498.3913  -371.0086  -325.5481 C0            1 RES     
   14746 C0         498.6372  -369.5683  -325.9746 C0            1 RES     
   14747 C0         497.2805  -368.8381  -325.9033 C0            1 RES     
   14748 C0         497.3573  -367.3306  -326.1518 C0            1 RES     
   14749 C0         498.0974  -366.5946  -325.0339 C0            1 RES     
   14750 H6         499.6302  -376.1450  -326.5636 H6            1 RES     
   14751 H6         501.0730  -376.8639  -325.9852 H6            1 RES     
   14752 H6         502.4692  -375.1883  -326.4456 H6            1 RES     
   14753 H6         500.1861  -374.8243  -328.5028 H6            1 RES     
   14754 H6         501.3149  -376.2185  -328.3948 H6            1 RES     
   14755 H6         503.2459  -374.7066  -328.9031 H6            1 RES     
   14756 H6         502.1166  -373.3151  -329.0674 H6            1 RES     
   14757 H6         502.6843  -374.0952  -331.2466 H6            1 RES     
   14758 H6         500.9393  -374.2952  -330.9317 H6            1 RES     
   14759 H6         501.8887  -376.1933  -332.2013 H6            1 RES     
   14760 H6         501.1789  -376.7192  -330.6468 H6            1 RES     
   14761 H6         503.4151  -376.9485  -329.6210 H6            1 RES     
   14762 H6         503.2458  -377.9128  -331.1238 H6            1 RES     
   14763 H6         504.6629  -375.1755  -330.8692 H6            1 RES     
   14764 H6         504.5188  -376.1158  -332.3972 H6            1 RES     
   14765 H6         506.7382  -376.3137  -331.2621 H6            1 RES     
   14766 H6         505.9429  -377.0001  -329.7994 H6            1 RES     
   14767 H6         505.1859  -378.9929  -331.2029 H6            1 RES     
   14768 H6         505.9068  -378.2037  -332.6526 H6            1 RES     
   14769 H6         508.1789  -378.3604  -331.6289 H6            1 RES     
   14770 H6         507.3777  -379.9577  -331.8440 H6            1 RES     
   14771 H6         507.5924  -378.4247  -329.1724 H6            1 RES     
   14772 H6         506.7440  -380.0044  -329.4310 H6            1 RES     
   14773 H6         508.5266  -379.8723  -329.6733 H6            1 RES     
   14774 H6         502.3378  -372.9366  -327.0278 H6            1 RES     
   14775 H6         501.9856  -373.0746  -325.4165 H6            1 RES     
   14776 H6         500.7328  -371.4094  -327.1017 H6            1 RES     
   14777 H6         499.6315  -372.7837  -327.4242 H6            1 RES     
   14778 H6         500.3424  -371.4110  -324.6929 H6            1 RES     
   14779 H6         499.1969  -372.7579  -324.8709 H6            1 RES     
   14780 H6         497.6512  -371.5052  -326.2126 H6            1 RES     
   14781 H6         497.9661  -370.9218  -324.5346 H6            1 RES     
   14782 H6         499.3591  -369.1215  -325.2587 H6            1 RES     
   14783 H6         499.0603  -369.5195  -326.9996 H6            1 RES     
   14784 H6         496.6046  -369.2925  -326.6608 H6            1 RES     
   14785 H6         496.8130  -368.9883  -324.9029 H6            1 RES     
   14786 H6         496.3142  -366.9452  -326.1706 H6            1 RES     
   14787 H6         497.8280  -367.1291  -327.1345 H6            1 RES     
   14788 H6         499.1612  -366.9006  -324.9822 H6            1 RES     
   14789 H6         498.0592  -365.5028  -325.2264 H6            1 RES     
   14790 H6         497.6123  -366.7956  -324.0535 H6            1 RES     
   14791 C0         505.6589  -386.2615  -319.1872 C0            1 RES     
   14792 C1         504.3856  -385.4881  -319.5950 C1            1 RES     
   14793 C1         503.2862  -386.2850  -319.6326 C1            1 RES     
   14794 S2         501.9062  -385.4980  -320.1605 S2            1 RES     
   14795 C1         502.7498  -384.0422  -320.4053 C1            1 RES     
   14796 C1         504.0998  -384.1981  -320.0724 C1            1 RES     
   14797 C1         503.6697  -387.6050  -319.3111 C1            1 RES     
   14798 C1         505.0182  -387.6494  -319.1369 C1            1 RES     
   14799 C1         505.4855  -388.9460  -318.9584 C1            1 RES     
   14800 C1         504.4199  -389.8618  -318.9708 C1            1 RES     
   14801 S2         502.9272  -389.0903  -319.2154 S2            1 RES     
   14802 H3         504.8124  -383.4112  -320.2312 H3            1 RES     
   14803 H3         506.5284  -389.2113  -318.8327 H3            1 RES     
   14804 N4         504.1113  -393.4121  -317.8088 N4            1 RES     
   14805 C1         504.0356  -392.0490  -317.8236 C1            1 RES     
   14806 C1         504.5324  -391.3150  -318.9147 C1            1 RES     
   14807 C1         505.0817  -392.0201  -319.9871 C1            1 RES     
   14808 N4         505.5433  -391.4380  -321.1236 N4            1 RES     
   14809 S2         505.9968  -392.7451  -322.0277 S2            1 RES     
   14810 N4         505.6449  -394.0382  -321.0570 N4            1 RES     
   14811 C1         505.1307  -393.4364  -319.9560 C1            1 RES     
   14812 C1         504.6496  -394.1189  -318.8419 C1            1 RES     
   14813 H5         503.5940  -391.5309  -316.9768 H5            1 RES     
   14814 C0         506.3288  -385.9733  -317.7976 C0            1 RES     
   14815 C0         505.8500  -386.3340  -316.3407 C0            1 RES     
   14816 C0         506.8963  -385.6569  -315.3872 C0            1 RES     
   14817 C0         506.7229  -385.9023  -313.8832 C0            1 RES     
   14818 C0         507.7771  -385.1468  -313.0402 C0            1 RES     
   14819 C0         509.2478  -385.5530  -313.2808 C0            1 RES     
   14820 C0         509.5420  -387.0536  -313.1079 C0            1 RES     
   14821 C0         509.1630  -387.5859  -311.7145 C0            1 RES     
   14822 C0         509.4053  -389.0945  -311.5634 C0            1 RES     
   14823 C0         510.8949  -389.4756  -311.6040 C0            1 RES     
   14824 C0         511.1325  -390.9705  -311.3374 C0            1 RES     
   14825 C0         510.5602  -391.8755  -312.4290 C0            1 RES     
   14826 C0         504.3785  -386.0240  -315.9120 C0            1 RES     
   14827 C0         503.9022  -384.5406  -315.8384 C0            1 RES     
   14828 C0         502.7185  -384.3519  -316.7920 C0            1 RES     
   14829 C0         502.2949  -382.9266  -317.1354 C0            1 RES     
   14830 C0         501.4407  -382.2067  -316.1021 C0            1 RES     
   14831 C0         501.0906  -380.8149  -316.6692 C0            1 RES     
   14832 C0         500.0749  -380.0320  -315.8341 C0            1 RES     
   14833 C0         498.6821  -380.6645  -315.8717 C0            1 RES     
   14834 H6         506.4982  -384.9275  -317.7604 H6            1 RES     
   14835 H6         507.3234  -386.4691  -317.8663 H6            1 RES     
   14836 H6         505.9441  -387.4383  -316.2399 H6            1 RES     
   14837 H6         506.8763  -384.5562  -315.5437 H6            1 RES     
   14838 H6         507.9050  -386.0189  -315.6802 H6            1 RES     
   14839 H6         506.7560  -386.9898  -313.6681 H6            1 RES     
   14840 H6         505.7358  -385.5133  -313.5613 H6            1 RES     
   14841 H6         507.5344  -385.2982  -311.9681 H6            1 RES     
   14842 H6         507.6862  -384.0546  -313.2321 H6            1 RES     
   14843 H6         509.8848  -384.9758  -312.5740 H6            1 RES     
   14844 H6         509.5554  -385.2558  -314.3061 H6            1 RES     
   14845 H6         508.9918  -387.6263  -313.8840 H6            1 RES     
   14846 H6         510.6277  -387.1992  -313.2860 H6            1 RES     
   14847 H6         508.0766  -387.4301  -311.5551 H6            1 RES     
   14848 H6         509.7154  -387.0299  -310.9256 H6            1 RES     
   14849 H6         508.9963  -389.4025  -310.5765 H6            1 RES     
   14850 H6         508.8374  -389.6249  -312.3563 H6            1 RES     
   14851 H6         511.3466  -389.2107  -312.5824 H6            1 RES     
   14852 H6         511.4196  -388.9027  -310.8086 H6            1 RES     
   14853 H6         510.6978  -391.2519  -310.3534 H6            1 RES     
   14854 H6         512.2295  -391.1430  -311.2920 H6            1 RES     
   14855 H6         509.4566  -391.7888  -312.4889 H6            1 RES     
   14856 H6         511.0045  -391.6160  -313.4134 H6            1 RES     
   14857 H6         510.8061  -392.9327  -312.1960 H6            1 RES     
   14858 H6         504.2245  -386.4593  -314.9015 H6            1 RES     
   14859 H6         503.6973  -386.6350  -316.5421 H6            1 RES     
   14860 H6         503.5634  -384.2851  -314.8093 H6            1 RES     
   14861 H6         504.7348  -383.8592  -316.1072 H6            1 RES     
   14862 H6         501.8466  -384.9795  -316.5110 H6            1 RES     
   14863 H6         503.0927  -384.7218  -317.7228 H6            1 RES     
   14864 H6         503.1822  -382.3413  -317.3885 H6            1 RES     
   14865 H6         501.6753  -382.9979  -318.0582 H6            1 RES     
   14866 H6         500.5237  -382.8153  -315.9529 H6            1 RES     
   14867 H6         501.9742  -382.1051  -315.1335 H6            1 RES     
   14868 H6         502.0325  -380.2243  -316.7356 H6            1 RES     
   14869 H6         500.6792  -380.9067  -317.7002 H6            1 RES     
   14870 H6         499.9885  -379.0143  -316.2745 H6            1 RES     
   14871 H6         500.4314  -379.9330  -314.7873 H6            1 RES     
   14872 H6         498.6804  -381.6718  -315.4106 H6            1 RES     
   14873 H6         497.9699  -380.0254  -315.3113 H6            1 RES     
   14874 H6         498.3272  -380.7459  -316.9234 H6            1 RES     
   14875 C0         506.6654  -386.0598  -320.3879 C0            1 RES     
   14876 C0         508.0255  -385.2274  -320.3315 C0            1 RES     
   14877 C0         508.3745  -384.8496  -321.8107 C0            1 RES     
   14878 C0         509.7862  -384.2711  -322.0354 C0            1 RES     
   14879 C0         510.0771  -383.8922  -323.4982 C0            1 RES     
   14880 C0         509.9921  -385.0431  -324.5166 C0            1 RES     
   14881 C0         510.8514  -386.2744  -324.1845 C0            1 RES     
   14882 C0         512.3479  -385.9523  -324.0271 C0            1 RES     
   14883 C0         513.1919  -387.1923  -323.6905 C0            1 RES     
   14884 C0         513.2389  -388.2148  -324.8400 C0            1 RES     
   14885 C0         514.1812  -389.3948  -324.5555 C0            1 RES     
   14886 C0         513.7154  -390.2725  -323.3937 C0            1 RES     
   14887 C0         508.3205  -384.0190  -319.3468 C0            1 RES     
   14888 C0         507.5774  -382.6584  -319.4675 C0            1 RES     
   14889 C0         506.5405  -382.4557  -318.3481 C0            1 RES     
   14890 C0         505.7118  -381.1832  -318.4097 C0            1 RES     
   14891 C0         506.4179  -379.8815  -318.0570 C0            1 RES     
   14892 C0         505.3405  -378.7784  -318.0218 C0            1 RES     
   14893 C0         505.8405  -377.4183  -317.5315 C0            1 RES     
   14894 C0         506.2256  -377.4403  -316.0515 C0            1 RES     
   14895 H6         506.0783  -385.7230  -321.2739 H6            1 RES     
   14896 H6         506.9801  -387.0725  -320.7277 H6            1 RES     
   14897 H6         508.7784  -385.9774  -319.9957 H6            1 RES     
   14898 H6         507.6281  -384.1153  -322.1835 H6            1 RES     
   14899 H6         508.2845  -385.7705  -322.4261 H6            1 RES     
   14900 H6         510.5427  -384.9962  -321.6687 H6            1 RES     
   14901 H6         509.9074  -383.3236  -321.4754 H6            1 RES     
   14902 H6         511.0964  -383.4520  -323.5368 H6            1 RES     
   14903 H6         509.3707  -383.0943  -323.8168 H6            1 RES     
   14904 H6         510.2959  -384.6428  -325.5086 H6            1 RES     
   14905 H6         508.9358  -385.3746  -324.6077 H6            1 RES     
   14906 H6         510.4788  -386.7466  -323.2505 H6            1 RES     
   14907 H6         510.7036  -386.9979  -325.0120 H6            1 RES     
   14908 H6         512.4753  -385.2406  -323.1849 H6            1 RES     
   14909 H6         512.7379  -385.4718  -324.9504 H6            1 RES     
   14910 H6         514.2300  -386.8483  -323.4903 H6            1 RES     
   14911 H6         512.7940  -387.6556  -322.7627 H6            1 RES     
   14912 H6         512.2274  -388.6144  -325.0592 H6            1 RES     
   14913 H6         513.6147  -387.6955  -325.7486 H6            1 RES     
   14914 H6         515.2066  -389.0173  -324.3509 H6            1 RES     
   14915 H6         514.2218  -390.0292  -325.4671 H6            1 RES     
   14916 H6         513.7049  -389.7073  -322.4400 H6            1 RES     
   14917 H6         512.6990  -390.6717  -323.5977 H6            1 RES     
   14918 H6         514.4147  -391.1269  -323.2768 H6            1 RES     
   14919 H6         509.3884  -383.7829  -319.5077 H6            1 RES     
   14920 H6         508.4111  -384.3302  -318.2892 H6            1 RES     
   14921 H6         508.3230  -381.8500  -319.3009 H6            1 RES     
   14922 H6         507.1618  -382.5223  -320.4865 H6            1 RES     
   14923 H6         507.0289  -382.5412  -317.3509 H6            1 RES     
   14924 H6         505.7777  -383.2236  -318.4125 H6            1 RES     
   14925 H6         505.2018  -381.1112  -319.3949 H6            1 RES     
   14926 H6         504.9538  -381.3028  -317.6181 H6            1 RES     
   14927 H6         506.8804  -380.0076  -317.0553 H6            1 RES     
   14928 H6         507.2085  -379.6400  -318.7976 H6            1 RES     
   14929 H6         504.9337  -378.6614  -319.0504 H6            1 RES     
   14930 H6         504.4973  -379.0828  -317.3597 H6            1 RES     
   14931 H6         505.0021  -376.6968  -317.6468 H6            1 RES     
   14932 H6         506.6909  -377.0769  -318.1544 H6            1 RES     
   14933 H6         507.0872  -378.1122  -315.8668 H6            1 RES     
   14934 H6         506.5090  -376.4166  -315.7317 H6            1 RES     
   14935 H6         505.3634  -377.7752  -315.4341 H6            1 RES     
   14936 C0         506.3245  -399.2212  -317.9819 C0            1 RES     
   14937 C1         505.5192  -397.9456  -318.3137 C1            1 RES     
   14938 C1         504.3759  -398.2183  -318.9947 C1            1 RES     
   14939 S2         503.5255  -396.8503  -319.4506 S2            1 RES     
   14940 C1         504.6972  -395.8171  -318.7793 C1            1 RES     
   14941 C1         505.7372  -396.5615  -318.2120 C1            1 RES     
   14942 C1         504.2997  -399.6102  -319.2172 C1            1 RES     
   14943 C1         505.4254  -400.2028  -318.7351 C1            1 RES     
   14944 C1         505.4852  -401.5558  -319.0469 C1            1 RES     
   14945 C1         504.3359  -401.9523  -319.7514 C1            1 RES     
   14946 S2         503.2703  -400.6543  -320.0025 S2            1 RES     
   14947 H3         506.6100  -396.0879  -317.8044 H3            1 RES     
   14948 H3         506.3081  -402.2105  -318.7862 H3            1 RES     
   14949 N4         502.8178  -405.3079  -320.4481 N4            1 RES     
   14950 C1         503.0582  -404.0975  -319.8640 C1            1 RES     
   14951 C1         504.0923  -403.2682  -320.3315 C1            1 RES     
   14952 C1         504.8473  -403.7077  -321.4205 C1            1 RES     
   14953 N4         505.8343  -402.9810  -322.0046 N4            1 RES     
   14954 S2         506.3043  -403.9637  -323.2477 S2            1 RES     
   14955 N4         505.3228  -405.2875  -323.0977 N4            1 RES     
   14956 C1         504.5651  -404.9599  -322.0219 C1            1 RES     
   14957 C1         503.5472  -405.7585  -321.5072 C1            1 RES     
   14958 H5         502.4464  -403.7810  -319.0236 H5            1 RES     
   14959 C0         506.4412  -399.6981  -316.4914 C0            1 RES     
   14960 C0         505.3622  -400.3380  -315.5384 C0            1 RES     
   14961 C0         506.0721  -400.4662  -314.1449 C0            1 RES     
   14962 C0         505.2728  -401.1347  -313.0195 C0            1 RES     
   14963 C0         506.0506  -401.1596  -311.6826 C0            1 RES     
   14964 C0         507.3679  -401.9662  -311.6855 C0            1 RES     
   14965 C0         507.2303  -403.4300  -312.1399 C0            1 RES     
   14966 C0         506.2272  -404.2327  -311.2925 C0            1 RES     
   14967 C0         506.0500  -405.6770  -311.7827 C0            1 RES     
   14968 C0         507.3113  -406.5379  -311.5989 C0            1 RES     
   14969 C0         507.0876  -408.0085  -311.9856 C0            1 RES     
   14970 C0         506.8045  -408.2032  -313.4757 C0            1 RES     
   14971 C0         503.9490  -399.6794  -315.4188 C0            1 RES     
   14972 C0         503.8236  -398.2489  -314.8100 C0            1 RES     
   14973 C0         503.1828  -397.3225  -315.8479 C0            1 RES     
   14974 C0         503.2552  -395.8174  -315.6069 C0            1 RES     
   14975 C0         502.2467  -395.2398  -314.6246 C0            1 RES     
   14976 C0         502.4651  -393.7132  -314.5701 C0            1 RES     
   14977 C0         501.4041  -392.9535  -313.7706 C0            1 RES     
   14978 C0         500.0353  -392.9766  -314.4542 C0            1 RES     
   14979 H6         506.8095  -398.8697  -315.9421 H6            1 RES     
   14980 H6         507.2462  -400.4670  -316.5133 H6            1 RES     
   14981 H6         505.1620  -401.3613  -315.9274 H6            1 RES     
   14982 H6         506.3596  -399.4538  -313.7856 H6            1 RES     
   14983 H6         507.0074  -401.0471  -314.2938 H6            1 RES     
   14984 H6         504.9770  -402.1605  -313.3195 H6            1 RES     
   14985 H6         504.3516  -400.5483  -312.8281 H6            1 RES     
   14986 H6         505.3797  -401.5722  -310.9010 H6            1 RES     
   14987 H6         506.2867  -400.1165  -311.3759 H6            1 RES     
   14988 H6         507.7871  -401.9453  -310.6549 H6            1 RES     
   14989 H6         508.1107  -401.4677  -312.3443 H6            1 RES     
   14990 H6         506.9167  -403.4548  -313.2049 H6            1 RES     
   14991 H6         508.2371  -403.8920  -312.0728 H6            1 RES     
   14992 H6         505.2293  -403.7553  -311.3711 H6            1 RES     
   14993 H6         506.5340  -404.2276  -310.2236 H6            1 RES     
   14994 H6         505.2294  -406.1345  -311.1881 H6            1 RES     
   14995 H6         505.7366  -405.6530  -312.8475 H6            1 RES     
   14996 H6         508.1571  -406.1363  -312.1945 H6            1 RES     
   14997 H6         507.5946  -406.5102  -310.5241 H6            1 RES     
   14998 H6         506.2511  -408.4325  -311.3883 H6            1 RES     
   14999 H6         508.0109  -408.5751  -311.7372 H6            1 RES     
   15000 H6         505.8620  -407.7032  -313.7770 H6            1 RES     
   15001 H6         507.6449  -407.8014  -314.0808 H6            1 RES     
   15002 H6         506.6984  -409.2871  -313.6908 H6            1 RES     
   15003 H6         503.3186  -400.3484  -314.7948 H6            1 RES     
   15004 H6         503.4528  -399.7397  -316.4111 H6            1 RES     
   15005 H6         503.1740  -398.2598  -313.9061 H6            1 RES     
   15006 H6         504.8233  -397.8724  -314.5123 H6            1 RES     
   15007 H6         502.1552  -397.6425  -316.1211 H6            1 RES     
   15008 H6         503.8002  -397.4573  -316.7105 H6            1 RES     
   15009 H6         504.2764  -395.5493  -315.3250 H6            1 RES     
   15010 H6         503.0484  -395.3329  -316.5883 H6            1 RES     
   15011 H6         501.2347  -395.4812  -315.0133 H6            1 RES     
   15012 H6         502.3655  -395.6824  -313.6131 H6            1 RES     
   15013 H6         503.4628  -393.5251  -314.1124 H6            1 RES     
   15014 H6         502.4820  -393.2853  -315.5984 H6            1 RES     
   15015 H6         501.7252  -391.8904  -313.7082 H6            1 RES     
   15016 H6         501.3336  -393.3605  -312.7400 H6            1 RES     
   15017 H6         499.6297  -394.0056  -314.5174 H6            1 RES     
   15018 H6         499.3212  -392.3574  -313.8742 H6            1 RES     
   15019 H6         500.1132  -392.5533  -315.4805 H6            1 RES     
   15020 C0         507.7389  -399.0006  -318.6501 C0            1 RES     
   15021 C0         509.1154  -398.7993  -317.8686 C0            1 RES     
   15022 C0         510.0910  -398.0893  -318.8669 C0            1 RES     
   15023 C0         511.5676  -398.0291  -318.4263 C0            1 RES     
   15024 C0         512.4853  -397.3026  -319.4254 C0            1 RES     
   15025 C0         512.5540  -397.9136  -320.8364 C0            1 RES     
   15026 C0         512.9180  -399.4068  -320.8850 C0            1 RES     
   15027 C0         514.2636  -399.7313  -320.2125 C0            1 RES     
   15028 C0         514.6102  -401.2280  -320.2651 C0            1 RES     
   15029 C0         514.8767  -401.7311  -321.6952 C0            1 RES     
   15030 C0         515.3449  -403.1940  -321.7394 C0            1 RES     
   15031 C0         514.2787  -404.1832  -321.2684 C0            1 RES     
   15032 C0         509.2601  -398.2039  -316.4052 C0            1 RES     
   15033 C0         508.9455  -396.7146  -316.0875 C0            1 RES     
   15034 C0         507.6255  -396.5466  -315.3137 C0            1 RES     
   15035 C0         507.1918  -395.1225  -315.0078 C0            1 RES     
   15036 C0         507.9722  -394.3787  -313.9331 C0            1 RES     
   15037 C0         507.2409  -393.0432  -313.6867 C0            1 RES     
   15038 C0         507.7963  -392.2211  -312.5223 C0            1 RES     
   15039 C0         507.5545  -392.8928  -311.1697 C0            1 RES     
   15040 H6         507.6371  -398.1882  -319.4069 H6            1 RES     
   15041 H6         507.9288  -399.8732  -319.3153 H6            1 RES     
   15042 H6         509.4896  -399.8391  -317.7242 H6            1 RES     
   15043 H6         509.7337  -397.0527  -319.0482 H6            1 RES     
   15044 H6         510.0481  -398.6391  -319.8316 H6            1 RES     
   15045 H6         511.9385  -399.0594  -318.2433 H6            1 RES     
   15046 H6         511.6660  -397.4486  -317.4886 H6            1 RES     
   15047 H6         513.5079  -397.2824  -318.9917 H6            1 RES     
   15048 H6         512.1564  -396.2444  -319.5213 H6            1 RES     
   15049 H6         513.3031  -397.3360  -321.4211 H6            1 RES     
   15050 H6         511.5733  -397.7814  -321.3412 H6            1 RES     
   15051 H6         512.1143  -400.0012  -320.4002 H6            1 RES     
   15052 H6         512.9505  -399.6916  -321.9564 H6            1 RES     
   15053 H6         514.2045  -399.4544  -319.1392 H6            1 RES     
   15054 H6         515.0805  -399.1398  -320.6798 H6            1 RES     
   15055 H6         515.5346  -401.3804  -319.6665 H6            1 RES     
   15056 H6         513.7883  -401.8032  -319.7883 H6            1 RES     
   15057 H6         513.9711  -401.6299  -322.3281 H6            1 RES     
   15058 H6         515.6837  -401.1060  -322.1361 H6            1 RES     
   15059 H6         516.2636  -403.3143  -321.1251 H6            1 RES     
   15060 H6         515.5982  -403.4417  -322.7927 H6            1 RES     
   15061 H6         514.0203  -404.0209  -320.2026 H6            1 RES     
   15062 H6         513.3629  -404.0852  -321.8895 H6            1 RES     
   15063 H6         514.6678  -405.2179  -321.3718 H6            1 RES     
   15064 H6         510.3289  -398.3356  -316.1553 H6            1 RES     
   15065 H6         508.8571  -398.8716  -315.6207 H6            1 RES     
   15066 H6         509.7249  -396.3471  -315.3841 H6            1 RES     
   15067 H6         509.0045  -396.0925  -317.0034 H6            1 RES     
   15068 H6         507.6513  -397.1443  -314.3743 H6            1 RES     
   15069 H6         506.7997  -396.9083  -315.9161 H6            1 RES     
   15070 H6         507.1391  -394.5329  -315.9488 H6            1 RES     
   15071 H6         506.1781  -395.2219  -314.5861 H6            1 RES     
   15072 H6         507.9641  -395.0034  -313.0150 H6            1 RES     
   15073 H6         509.0221  -394.2037  -314.2477 H6            1 RES     
   15074 H6         507.3073  -392.4375  -314.6172 H6            1 RES     
   15075 H6         506.1610  -393.2262  -313.4813 H6            1 RES     
   15076 H6         507.2529  -391.2507  -312.5141 H6            1 RES     
   15077 H6         508.8755  -392.0223  -312.6757 H6            1 RES     
   15078 H6         508.1023  -393.8528  -311.0902 H6            1 RES     
   15079 H6         507.9088  -392.2229  -310.3596 H6            1 RES     
   15080 H6         506.4683  -393.0797  -311.0212 H6            1 RES     
   15081 C0         503.5746  -411.0770  -322.6432 C0            1 RES     
   15082 C1         503.2685  -409.5654  -322.5602 C1            1 RES     
   15083 C1         502.4546  -409.1465  -323.5639 C1            1 RES     
   15084 S2         502.1774  -407.4956  -323.5567 S2            1 RES     
   15085 C1         503.1889  -407.2645  -322.2097 C1            1 RES     
   15086 C1         503.7298  -408.4847  -321.7901 C1            1 RES     
   15087 C1         502.1655  -410.2441  -324.4033 C1            1 RES     
   15088 C1         502.8500  -411.3352  -323.9652 C1            1 RES     
   15089 C1         502.7259  -412.4180  -324.8273 C1            1 RES     
   15090 C1         501.8886  -412.0959  -325.9087 C1            1 RES     
   15091 S2         501.3233  -410.4974  -325.8151 S2            1 RES     
   15092 H3         504.4540  -408.5363  -320.9994 H3            1 RES     
   15093 H3         503.2132  -413.3752  -324.6854 H3            1 RES     
   15094 N4         500.0632  -414.1976  -328.4190 N4            1 RES     
   15095 C1         500.3167  -413.4420  -327.3104 C1            1 RES     
   15096 C1         501.6072  -412.9428  -327.0624 C1            1 RES     
   15097 C1         502.6110  -413.2226  -327.9913 C1            1 RES     
   15098 N4         503.8823  -412.7544  -327.9016 N4            1 RES     
   15099 S2         504.5720  -413.3458  -329.2823 S2            1 RES     
   15100 N4         503.3436  -414.1816  -330.0109 N4            1 RES     
   15101 C1         502.3177  -413.9929  -329.1445 C1            1 RES     
   15102 C1         501.0301  -414.4879  -329.3342 C1            1 RES     
   15103 H5         499.5110  -413.2350  -326.6114 H5            1 RES     
   15104 C0         502.9882  -412.0471  -321.5579 C0            1 RES     
   15105 C0         501.5093  -412.5341  -321.3182 C0            1 RES     
   15106 C0         501.5679  -413.3867  -320.0022 C0            1 RES     
   15107 C0         500.2646  -414.0605  -319.5551 C0            1 RES     
   15108 C0         500.4288  -414.8292  -318.2228 C0            1 RES     
   15109 C0         501.4273  -416.0075  -318.2447 C0            1 RES     
   15110 C0         501.1584  -417.0645  -319.3303 C0            1 RES     
   15111 C0         499.7526  -417.6835  -319.2344 C0            1 RES     
   15112 C0         499.4668  -418.6967  -320.3520 C0            1 RES     
   15113 C0         500.3299  -419.9660  -320.2540 C0            1 RES     
   15114 C0         499.9561  -421.0208  -321.3076 C0            1 RES     
   15115 C0         500.2449  -420.5700  -322.7400 C0            1 RES     
   15116 C0         500.3467  -411.4887  -321.2890 C0            1 RES     
   15117 C0         500.3128  -410.4176  -320.1558 C0            1 RES     
   15118 C0         500.3532  -409.0237  -320.7895 C0            1 RES     
   15119 C0         500.6567  -407.8333  -319.8842 C0            1 RES     
   15120 C0         499.4990  -407.3046  -319.0502 C0            1 RES     
   15121 C0         500.0108  -406.0846  -318.2558 C0            1 RES     
   15122 C0         498.9182  -405.3161  -317.5090 C0            1 RES     
   15123 C0         497.9594  -404.5983  -318.4611 C0            1 RES     
   15124 H6         503.2851  -411.6563  -320.6183 H6            1 RES     
   15125 H6         503.5451  -412.9987  -321.7133 H6            1 RES     
   15126 H6         501.2565  -413.2102  -322.1653 H6            1 RES     
   15127 H6         501.9078  -412.7417  -319.1625 H6            1 RES     
   15128 H6         502.3326  -414.1797  -320.1465 H6            1 RES     
   15129 H6         499.8910  -414.7345  -320.3525 H6            1 RES     
   15130 H6         499.4970  -413.2825  -319.3684 H6            1 RES     
   15131 H6         499.4318  -415.2101  -317.9193 H6            1 RES     
   15132 H6         500.7504  -414.1207  -317.4276 H6            1 RES     
   15133 H6         501.4018  -416.4994  -317.2468 H6            1 RES     
   15134 H6         502.4593  -415.6212  -318.3858 H6            1 RES     
   15135 H6         501.2908  -416.6028  -320.3315 H6            1 RES     
   15136 H6         501.9285  -417.8557  -319.2180 H6            1 RES     
   15137 H6         498.9984  -416.8782  -319.3472 H6            1 RES     
   15138 H6         499.6082  -418.1610  -318.2405 H6            1 RES     
   15139 H6         498.3995  -418.9968  -320.2675 H6            1 RES     
   15140 H6         499.6101  -418.1930  -321.3310 H6            1 RES     
   15141 H6         501.4077  -419.7231  -320.3580 H6            1 RES     
   15142 H6         500.1672  -420.4175  -319.2510 H6            1 RES     
   15143 H6         498.8810  -421.2871  -321.2098 H6            1 RES     
   15144 H6         500.5574  -421.9344  -321.1100 H6            1 RES     
   15145 H6         499.6326  -419.6886  -323.0179 H6            1 RES     
   15146 H6         501.3216  -420.3216  -322.8535 H6            1 RES     
   15147 H6         499.9945  -421.3931  -323.4416 H6            1 RES     
   15148 H6         499.3909  -412.0515  -321.2253 H6            1 RES     
   15149 H6         500.2796  -411.0160  -322.2923 H6            1 RES     
   15150 H6         499.3758  -410.5016  -319.5608 H6            1 RES     
   15151 H6         501.1719  -410.5615  -319.4695 H6            1 RES     
   15152 H6         499.4722  -408.8292  -321.4367 H6            1 RES     
   15153 H6         501.2130  -409.0681  -321.4237 H6            1 RES     
   15154 H6         501.5171  -408.0734  -319.2547 H6            1 RES     
   15155 H6         500.9645  -406.9997  -320.5557 H6            1 RES     
   15156 H6         498.6946  -407.0080  -319.7562 H6            1 RES     
   15157 H6         499.1101  -408.0801  -318.3570 H6            1 RES     
   15158 H6         500.7635  -406.4459  -317.5188 H6            1 RES     
   15159 H6         500.5241  -405.3657  -318.9342 H6            1 RES     
   15160 H6         499.4159  -404.5370  -316.8906 H6            1 RES     
   15161 H6         498.3607  -405.9982  -316.8332 H6            1 RES     
   15162 H6         497.3941  -405.3167  -319.0869 H6            1 RES     
   15163 H6         497.2315  -404.0023  -317.8740 H6            1 RES     
   15164 H6         498.5254  -403.9062  -319.1240 H6            1 RES     
   15165 C0         505.1483  -411.1735  -322.7419 C0            1 RES     
   15166 C0         506.1151  -411.7742  -321.6235 C0            1 RES     
   15167 C0         507.5350  -411.1732  -321.8973 C0            1 RES     
   15168 C0         508.6937  -411.8144  -321.1071 C0            1 RES     
   15169 C0         510.0659  -411.1776  -321.3892 C0            1 RES     
   15170 C0         510.5455  -411.2427  -322.8503 C0            1 RES     
   15171 C0         510.5587  -412.6492  -323.4718 C0            1 RES     
   15172 C0         511.4242  -413.6549  -322.6924 C0            1 RES     
   15173 C0         511.4227  -415.0567  -323.3234 C0            1 RES     
   15174 C0         512.1102  -415.0945  -324.7000 C0            1 RES     
   15175 C0         512.2214  -416.5144  -325.2767 C0            1 RES     
   15176 C0         510.8656  -417.1412  -325.6025 C0            1 RES     
   15177 C0         505.8020  -411.8189  -320.0689 C0            1 RES     
   15178 C0         505.7264  -410.5269  -319.2069 C0            1 RES     
   15179 C0         504.2816  -410.1658  -318.8176 C0            1 RES     
   15180 C0         504.0900  -408.8824  -318.0264 C0            1 RES     
   15181 C0         504.5297  -408.8974  -316.5692 C0            1 RES     
   15182 C0         504.0761  -407.5610  -315.9467 C0            1 RES     
   15183 C0         504.2971  -407.4569  -314.4366 C0            1 RES     
   15184 C0         503.4018  -408.4162  -313.6511 C0            1 RES     
   15185 H6         505.5343  -410.1728  -323.0461 H6            1 RES     
   15186 H6         505.3855  -411.7669  -323.6538 H6            1 RES     
   15187 H6         506.1621  -412.8595  -321.8727 H6            1 RES     
   15188 H6         507.5169  -410.0840  -321.6766 H6            1 RES     
   15189 H6         507.7535  -411.2988  -322.9796 H6            1 RES     
   15190 H6         508.7247  -412.9036  -321.3200 H6            1 RES     
   15191 H6         508.5422  -411.6733  -320.0194 H6            1 RES     
   15192 H6         510.8132  -411.6847  -320.7422 H6            1 RES     
   15193 H6         510.0444  -410.1098  -321.0785 H6            1 RES     
   15194 H6         511.5717  -410.8161  -322.8909 H6            1 RES     
   15195 H6         509.8974  -410.5947  -323.4780 H6            1 RES     
   15196 H6         509.5193  -413.0358  -323.5384 H6            1 RES     
   15197 H6         510.9450  -412.5366  -324.5053 H6            1 RES     
   15198 H6         511.0117  -413.7652  -321.6678 H6            1 RES     
   15199 H6         512.4678  -413.2817  -322.6087 H6            1 RES     
   15200 H6         511.9793  -415.7340  -322.6396 H6            1 RES     
   15201 H6         510.3744  -415.4173  -323.3929 H6            1 RES     
   15202 H6         511.5726  -414.4564  -325.4313 H6            1 RES     
   15203 H6         513.1422  -414.6977  -324.5814 H6            1 RES     
   15204 H6         512.7739  -417.1673  -324.5666 H6            1 RES     
   15205 H6         512.8060  -416.4570  -326.2201 H6            1 RES     
   15206 H6         510.2527  -417.2749  -324.6884 H6            1 RES     
   15207 H6         510.3135  -416.5063  -326.3278 H6            1 RES     
   15208 H6         511.0244  -418.1418  -326.0567 H6            1 RES     
   15209 H6         506.6289  -412.4106  -319.6351 H6            1 RES     
   15210 H6         504.9864  -412.5193  -319.8080 H6            1 RES     
   15211 H6         506.2276  -410.7381  -318.2366 H6            1 RES     
   15212 H6         506.2763  -409.6944  -319.6906 H6            1 RES     
   15213 H6         503.8037  -411.0163  -318.2805 H6            1 RES     
   15214 H6         503.7006  -409.9674  -319.7113 H6            1 RES     
   15215 H6         504.5428  -408.0284  -318.5755 H6            1 RES     
   15216 H6         502.9975  -408.7427  -317.9779 H6            1 RES     
   15217 H6         504.0238  -409.7515  -316.0714 H6            1 RES     
   15218 H6         505.6292  -409.0220  -316.4826 H6            1 RES     
   15219 H6         504.6347  -406.7403  -316.4484 H6            1 RES     
   15220 H6         502.9909  -407.3945  -316.1378 H6            1 RES     
   15221 H6         504.0238  -406.4224  -314.1332 H6            1 RES     
   15222 H6         505.3648  -407.6275  -314.1943 H6            1 RES     
   15223 H6         503.6469  -409.4737  -313.8739 H6            1 RES     
   15224 H6         503.5486  -408.2474  -312.5646 H6            1 RES     
   15225 H6         502.3324  -408.2311  -313.8940 H6            1 RES     
   15226 C0         500.3219  -418.6995  -332.7015 C0            1 RES     
   15227 C1         500.3510  -417.3102  -332.0271 C1            1 RES     
   15228 C1         500.1111  -416.3032  -332.9066 C1            1 RES     
   15229 S2         500.2265  -414.7780  -332.2263 S2            1 RES     
   15230 C1         500.6522  -415.4146  -330.7083 C1            1 RES     
   15231 C1         500.7001  -416.8120  -330.7608 C1            1 RES     
   15232 C1         499.9392  -416.8552  -334.1945 C1            1 RES     
   15233 C1         500.1366  -418.2000  -334.1351 C1            1 RES     
   15234 C1         500.1242  -418.7918  -335.3924 C1            1 RES     
   15235 C1         499.8723  -417.8329  -336.3880 C1            1 RES     
   15236 S2         499.6851  -416.2774  -335.7333 S2            1 RES     
   15237 H3         501.0249  -417.3952  -329.9202 H3            1 RES     
   15238 H3         500.2915  -419.8463  -335.5766 H3            1 RES     
   15239 N4         498.7622  -418.1118  -339.9573 N4            1 RES     
   15240 C1         498.7209  -417.9352  -338.6041 C1            1 RES     
   15241 C1         499.8862  -418.0625  -337.8284 C1            1 RES     
   15242 C1         501.0849  -418.3508  -338.4833 C1            1 RES     
   15243 N4         502.2883  -418.4432  -337.8615 N4            1 RES     
   15244 S2         503.3147  -418.7292  -339.1250 S2            1 RES     
   15245 N4         502.3188  -418.7493  -340.4464 N4            1 RES     
   15246 C1         501.1048  -418.5101  -339.8917 C1            1 RES     
   15247 C1         499.9201  -418.4003  -340.6151 C1            1 RES     
   15248 H5         497.7732  -417.7029  -338.1261 H5            1 RES     
   15249 C0         499.1577  -419.6979  -332.3691 C0            1 RES     
   15250 C0         497.6355  -419.6596  -332.7731 C0            1 RES     
   15251 C0         496.9825  -420.8727  -332.0217 C0            1 RES     
   15252 C0         495.4944  -421.1319  -332.2874 C0            1 RES     
   15253 C0         494.9479  -422.3167  -331.4566 C0            1 RES     
   15254 C0         495.5867  -423.6929  -331.7463 C0            1 RES     
   15255 C0         495.5385  -424.1321  -333.2204 C0            1 RES     
   15256 C0         494.1087  -424.1849  -333.7875 C0            1 RES     
   15257 C0         494.0676  -424.5690  -335.2735 C0            1 RES     
   15258 C0         494.5184  -426.0156  -335.5377 C0            1 RES     
   15259 C0         494.3645  -426.4255  -337.0110 C0            1 RES     
   15260 C0         495.2842  -425.6467  -337.9522 C0            1 RES     
   15261 C0         496.8178  -418.3408  -332.5803 C0            1 RES     
   15262 C0         496.5801  -417.7949  -331.1387 C0            1 RES     
   15263 C0         497.1737  -416.3865  -331.0376 C0            1 RES     
   15264 C0         497.3532  -415.7824  -329.6478 C0            1 RES     
   15265 C0         496.1095  -415.1899  -329.0015 C0            1 RES     
   15266 C0         496.5250  -414.5982  -327.6382 C0            1 RES     
   15267 C0         495.4269  -413.7923  -326.9406 C0            1 RES     
   15268 C0         495.1035  -412.4917  -327.6789 C0            1 RES     
   15269 H6         499.1406  -419.7940  -331.3135 H6            1 RES     
   15270 H6         499.5050  -420.6703  -332.7859 H6            1 RES     
   15271 H6         497.5924  -419.8582  -333.8673 H6            1 RES     
   15272 H6         497.0994  -420.7304  -330.9251 H6            1 RES     
   15273 H6         497.5461  -421.7880  -332.3030 H6            1 RES     
   15274 H6         495.3243  -421.3016  -333.3700 H6            1 RES     
   15275 H6         494.9082  -420.2432  -331.9777 H6            1 RES     
   15276 H6         493.8543  -422.3854  -331.6318 H6            1 RES     
   15277 H6         495.0799  -422.0975  -330.3738 H6            1 RES     
   15278 H6         495.0634  -424.4535  -331.1250 H6            1 RES     
   15279 H6         496.6490  -423.6885  -331.4211 H6            1 RES     
   15280 H6         496.1518  -423.4356  -333.8302 H6            1 RES     
   15281 H6         496.0066  -425.1365  -333.2806 H6            1 RES     
   15282 H6         493.6581  -423.1740  -333.7172 H6            1 RES     
   15283 H6         493.4840  -424.8881  -333.1943 H6            1 RES     
   15284 H6         493.0152  -424.4665  -335.6172 H6            1 RES     
   15285 H6         494.6913  -423.8479  -335.8424 H6            1 RES     
   15286 H6         495.5752  -426.1646  -335.2337 H6            1 RES     
   15287 H6         493.8796  -426.6928  -334.9299 H6            1 RES     
   15288 H6         493.3074  -426.2956  -337.3302 H6            1 RES     
   15289 H6         494.6213  -427.5033  -337.0982 H6            1 RES     
   15290 H6         495.0419  -424.5649  -337.9510 H6            1 RES     
   15291 H6         496.3450  -425.7873  -337.6541 H6            1 RES     
   15292 H6         495.1536  -426.0234  -338.9883 H6            1 RES     
   15293 H6         495.8148  -418.4988  -333.0313 H6            1 RES     
   15294 H6         497.2563  -417.5610  -333.2391 H6            1 RES     
   15295 H6         495.4916  -417.7299  -330.9154 H6            1 RES     
   15296 H6         497.0459  -418.4712  -330.3935 H6            1 RES     
   15297 H6         496.6842  -415.6719  -331.7324 H6            1 RES     
   15298 H6         498.1802  -416.5205  -331.3727 H6            1 RES     
   15299 H6         497.8211  -416.5226  -328.9941 H6            1 RES     
   15300 H6         498.0761  -414.9429  -329.7623 H6            1 RES     
   15301 H6         495.7342  -414.3948  -329.6801 H6            1 RES     
   15302 H6         495.3186  -415.9570  -328.8636 H6            1 RES     
   15303 H6         496.8278  -415.4409  -326.9760 H6            1 RES     
   15304 H6         497.4087  -413.9306  -327.7564 H6            1 RES     
   15305 H6         495.8012  -413.5154  -325.9304 H6            1 RES     
   15306 H6         494.5129  -414.4109  -326.8194 H6            1 RES     
   15307 H6         494.6853  -412.6888  -328.6856 H6            1 RES     
   15308 H6         494.3555  -411.9131  -327.0998 H6            1 RES     
   15309 H6         496.0223  -411.8720  -327.7823 H6            1 RES     
   15310 C0         501.7441  -419.3253  -332.4163 C0            1 RES     
   15311 C0         502.0353  -420.5851  -331.4812 C0            1 RES     
   15312 C0         503.5435  -420.4914  -331.0701 C0            1 RES     
   15313 C0         504.1258  -421.7431  -330.3828 C0            1 RES     
   15314 C0         505.6026  -421.5981  -329.9751 C0            1 RES     
   15315 C0         506.5896  -421.3249  -331.1241 C0            1 RES     
   15316 C0         506.5336  -422.3298  -332.2866 C0            1 RES     
   15317 C0         506.7776  -423.7852  -331.8503 C0            1 RES     
   15318 C0         506.7133  -424.7774  -333.0227 C0            1 RES     
   15319 C0         507.8589  -424.5859  -334.0328 C0            1 RES     
   15320 C0         507.8698  -425.6539  -335.1375 C0            1 RES     
   15321 C0         506.6484  -425.5859  -336.0545 C0            1 RES     
   15322 C0         501.1359  -421.0465  -330.2585 C0            1 RES     
   15323 C0         501.0164  -420.2008  -328.9591 C0            1 RES     
   15324 C0         499.6539  -419.4941  -328.8430 C0            1 RES     
   15325 C0         499.4567  -418.5888  -327.6382 C0            1 RES     
   15326 C0         499.2742  -419.2667  -326.2876 C0            1 RES     
   15327 C0         498.9211  -418.1613  -325.2715 C0            1 RES     
   15328 C0         498.5489  -418.6744  -323.8792 C0            1 RES     
   15329 C0         497.2288  -419.4468  -323.8786 C0            1 RES     
   15330 H6         502.4299  -418.4971  -332.1216 H6            1 RES     
   15331 H6         502.1822  -419.6095  -333.3998 H6            1 RES     
   15332 H6         501.9346  -421.4536  -332.1723 H6            1 RES     
   15333 H6         503.6820  -419.6202  -330.3940 H6            1 RES     
   15334 H6         504.1354  -420.3058  -331.9921 H6            1 RES     
   15335 H6         503.9957  -422.6217  -331.0488 H6            1 RES     
   15336 H6         503.5951  -421.9417  -329.4316 H6            1 RES     
   15337 H6         505.9034  -422.5337  -329.4570 H6            1 RES     
   15338 H6         505.6980  -420.7753  -329.2328 H6            1 RES     
   15339 H6         507.6161  -421.3183  -330.6964 H6            1 RES     
   15340 H6         506.4009  -420.3106  -331.5360 H6            1 RES     
   15341 H6         505.5462  -422.2599  -332.7910 H6            1 RES     
   15342 H6         507.3089  -422.0168  -333.0153 H6            1 RES     
   15343 H6         505.9829  -424.0836  -331.1351 H6            1 RES     
   15344 H6         507.7592  -423.8740  -331.3363 H6            1 RES     
   15345 H6         506.7918  -425.8028  -332.6002 H6            1 RES     
   15346 H6         505.7248  -424.6808  -333.5201 H6            1 RES     
   15347 H6         507.8072  -423.5849  -334.5085 H6            1 RES     
   15348 H6         508.8214  -424.6622  -333.4814 H6            1 RES     
   15349 H6         507.9397  -426.6658  -334.6827 H6            1 RES     
   15350 H6         508.7746  -425.4923  -335.7623 H6            1 RES     
   15351 H6         505.7130  -425.7929  -335.4967 H6            1 RES     
   15352 H6         506.5808  -424.5844  -336.5303 H6            1 RES     
   15353 H6         506.7466  -426.3515  -336.8527 H6            1 RES     
   15354 H6         501.5728  -422.0105  -329.9395 H6            1 RES     
   15355 H6         500.1503  -421.4429  -330.5670 H6            1 RES     
   15356 H6         501.0363  -420.9023  -328.0961 H6            1 RES     
   15357 H6         501.8816  -419.5159  -328.8504 H6            1 RES     
   15358 H6         498.8280  -420.2394  -328.8954 H6            1 RES     
   15359 H6         499.5299  -418.8009  -329.6674 H6            1 RES     
   15360 H6         500.2656  -417.8271  -327.6011 H6            1 RES     
   15361 H6         498.4933  -418.0846  -327.8203 H6            1 RES     
   15362 H6         498.4380  -419.9913  -326.3824 H6            1 RES     
   15363 H6         500.1942  -419.8071  -325.9818 H6            1 RES     
   15364 H6         499.7984  -417.4835  -325.1812 H6            1 RES     
   15365 H6         498.0641  -417.5538  -325.6436 H6            1 RES     
   15366 H6         498.4151  -417.7856  -323.2243 H6            1 RES     
   15367 H6         499.3692  -419.2968  -323.4698 H6            1 RES     
   15368 H6         497.3008  -420.3730  -324.4826 H6            1 RES     
   15369 H6         496.9710  -419.7304  -322.8376 H6            1 RES     
   15370 H6         496.4105  -418.8110  -324.2825 H6            1 RES     
   15371 C0         499.6760  -420.6148  -345.5764 C0            1 RES     
   15372 C1         499.7452  -419.6585  -344.3654 C1            1 RES     
   15373 C1         500.0993  -418.3966  -344.7225 C1            1 RES     
   15374 S2         500.2733  -417.3566  -343.4223 S2            1 RES     
   15375 C1         499.9166  -418.5873  -342.3048 C1            1 RES     
   15376 C1         499.6704  -419.7938  -342.9691 C1            1 RES     
   15377 C1         500.3288  -418.3652  -346.1150 C1            1 RES     
   15378 C1         500.1838  -419.6197  -346.6210 C1            1 RES     
   15379 C1         500.5349  -419.6917  -347.9636 C1            1 RES     
   15380 C1         500.9132  -418.4268  -348.4445 C1            1 RES     
   15381 S2         500.8338  -417.2408  -347.2319 S2            1 RES     
   15382 H3         499.5013  -420.7073  -342.4313 H3            1 RES     
   15383 H3         500.5229  -420.6002  -348.5539 H3            1 RES     
   15384 N4         501.2609  -417.0269  -351.9042 N4            1 RES     
   15385 C1         500.7321  -417.3272  -350.6817 C1            1 RES     
   15386 C1         501.4399  -418.1322  -349.7725 C1            1 RES     
   15387 C1         502.7031  -418.5939  -350.1466 C1            1 RES     
   15388 N4         503.5129  -419.3296  -349.3427 N4            1 RES     
   15389 S2         504.8616  -419.5160  -350.2798 S2            1 RES     
   15390 N4         504.4866  -418.7115  -351.6764 N4            1 RES     
   15391 C1         503.2382  -418.2519  -351.4139 C1            1 RES     
   15392 C1         502.4887  -417.4730  -352.2916 C1            1 RES     
   15393 H5         499.7500  -416.9446  -350.4178 H5            1 RES     
   15394 C0         498.2851  -421.1657  -346.0503 C0            1 RES     
   15395 C0         497.0932  -420.4353  -346.7766 C0            1 RES     
   15396 C0         495.9467  -421.5037  -346.8563 C0            1 RES     
   15397 C0         494.6650  -421.0906  -347.5904 C0            1 RES     
   15398 C0         493.5886  -422.2011  -347.5617 C0            1 RES     
   15399 C0         493.9677  -423.5238  -348.2637 C0            1 RES     
   15400 C0         494.4058  -423.3758  -349.7314 C0            1 RES     
   15401 C0         493.3402  -422.7016  -350.6138 C0            1 RES     
   15402 C0         493.8015  -422.5046  -352.0650 C0            1 RES     
   15403 C0         493.9871  -423.8280  -352.8264 C0            1 RES     
   15404 C0         494.3370  -423.6163  -354.3080 C0            1 RES     
   15405 C0         495.6999  -422.9551  -354.5165 C0            1 RES     
   15406 C0         496.5797  -419.0631  -346.2302 C0            1 RES     
   15407 C0         495.9229  -419.0029  -344.8168 C0            1 RES     
   15408 C0         496.7252  -418.0387  -343.9377 C0            1 RES     
   15409 C0         496.4739  -418.0631  -342.4327 C0            1 RES     
   15410 C0         495.2413  -417.3191  -341.9400 C0            1 RES     
   15411 C0         495.2084  -417.4316  -340.4013 C0            1 RES     
   15412 C0         494.1329  -416.5742  -339.7302 C0            1 RES     
   15413 C0         494.4221  -415.0770  -339.8560 C0            1 RES     
   15414 H6         497.8344  -421.6074  -345.1985 H6            1 RES     
   15415 H6         498.5433  -421.9888  -346.7543 H6            1 RES     
   15416 H6         497.4400  -420.2127  -347.8104 H6            1 RES     
   15417 H6         495.6522  -421.8028  -345.8266 H6            1 RES     
   15418 H6         496.3573  -422.4036  -347.3623 H6            1 RES     
   15419 H6         494.9004  -420.8005  -348.6346 H6            1 RES     
   15420 H6         494.2171  -420.2152  -347.0782 H6            1 RES     
   15421 H6         492.6659  -421.7993  -348.0290 H6            1 RES     
   15422 H6         493.3302  -422.4344  -346.5050 H6            1 RES     
   15423 H6         493.0883  -424.2040  -348.2155 H6            1 RES     
   15424 H6         494.7894  -424.0216  -347.7057 H6            1 RES     
   15425 H6         495.3469  -422.7881  -349.7752 H6            1 RES     
   15426 H6         494.6248  -424.3942  -350.1143 H6            1 RES     
   15427 H6         493.1343  -421.6875  -350.2147 H6            1 RES     
   15428 H6         492.3940  -423.2853  -350.5902 H6            1 RES     
   15429 H6         493.0195  -421.9116  -352.5876 H6            1 RES     
   15430 H6         494.7412  -421.9134  -352.0600 H6            1 RES     
   15431 H6         494.7782  -424.4490  -352.3574 H6            1 RES     
   15432 H6         493.0283  -424.3892  -352.7822 H6            1 RES     
   15433 H6         493.5472  -423.0064  -354.7985 H6            1 RES     
   15434 H6         494.3616  -424.6113  -354.8025 H6            1 RES     
   15435 H6         495.7227  -421.9321  -354.0897 H6            1 RES     
   15436 H6         496.4987  -423.5682  -354.0478 H6            1 RES     
   15437 H6         495.9063  -422.8743  -355.6043 H6            1 RES     
   15438 H6         495.8263  -418.6762  -346.9492 H6            1 RES     
   15439 H6         497.4025  -418.3223  -346.3239 H6            1 RES     
   15440 H6         494.8779  -418.6251  -344.8826 H6            1 RES     
   15441 H6         495.8964  -420.0154  -344.3654 H6            1 RES     
   15442 H6         496.7191  -417.0018  -344.3350 H6            1 RES     
   15443 H6         497.7255  -418.4073  -344.0199 H6            1 RES     
   15444 H6         496.4711  -419.1000  -342.0877 H6            1 RES     
   15445 H6         497.3502  -417.5631  -341.9608 H6            1 RES     
   15446 H6         495.3486  -416.2601  -342.2572 H6            1 RES     
   15447 H6         494.3111  -417.7397  -342.3771 H6            1 RES     
   15448 H6         495.0321  -418.4994  -340.1387 H6            1 RES     
   15449 H6         496.1916  -417.1377  -339.9683 H6            1 RES     
   15450 H6         494.1320  -416.8215  -338.6458 H6            1 RES     
   15451 H6         493.1323  -416.8157  -340.1466 H6            1 RES     
   15452 H6         494.4001  -414.7460  -340.9130 H6            1 RES     
   15453 H6         493.6552  -414.5034  -339.2969 H6            1 RES     
   15454 H6         495.4202  -414.8425  -339.4227 H6            1 RES     
   15455 C0         500.6951  -421.7751  -345.2434 C0            1 RES     
   15456 C0         500.3091  -423.2933  -344.9399 C0            1 RES     
   15457 C0         501.5149  -423.9071  -344.1514 C0            1 RES     
   15458 C0         501.4877  -425.4393  -343.9791 C0            1 RES     
   15459 C0         502.6783  -425.9960  -343.1786 C0            1 RES     
   15460 C0         504.0708  -425.7244  -343.7754 C0            1 RES     
   15461 C0         504.2543  -426.1700  -345.2356 C0            1 RES     
   15462 C0         503.9784  -427.6675  -345.4581 C0            1 RES     
   15463 C0         504.1612  -428.0956  -346.9232 C0            1 RES     
   15464 C0         505.6226  -428.0007  -347.3969 C0            1 RES     
   15465 C0         505.8293  -428.5453  -348.8189 C0            1 RES     
   15466 C0         505.1138  -427.7221  -349.8901 C0            1 RES     
   15467 C0         498.9242  -423.7851  -344.3424 C0            1 RES     
   15468 C0         498.4950  -423.4601  -342.8836 C0            1 RES     
   15469 C0         497.3896  -422.3906  -342.8224 C0            1 RES     
   15470 C0         496.9415  -421.9529  -341.4377 C0            1 RES     
   15471 C0         496.0984  -422.9386  -340.6410 C0            1 RES     
   15472 C0         495.6294  -422.2057  -339.3675 C0            1 RES     
   15473 C0         494.6371  -422.9940  -338.5106 C0            1 RES     
   15474 C0         493.2873  -423.1777  -339.2058 C0            1 RES     
   15475 H6         501.3752  -421.4127  -344.4376 H6            1 RES     
   15476 H6         501.4092  -421.8410  -346.0953 H6            1 RES     
   15477 H6         500.2979  -423.7677  -345.9483 H6            1 RES     
   15478 H6         501.5663  -423.4390  -343.1447 H6            1 RES     
   15479 H6         502.4462  -423.6448  -344.6981 H6            1 RES     
   15480 H6         501.4382  -425.9203  -344.9784 H6            1 RES     
   15481 H6         500.5967  -425.7453  -343.3974 H6            1 RES     
   15482 H6         502.5362  -427.0936  -343.0813 H6            1 RES     
   15483 H6         502.6545  -425.5769  -342.1486 H6            1 RES     
   15484 H6         504.8208  -426.2426  -343.1386 H6            1 RES     
   15485 H6         504.2886  -424.6366  -343.7171 H6            1 RES     
   15486 H6         503.5861  -425.5735  -345.8929 H6            1 RES     
   15487 H6         505.3017  -425.9317  -345.5117 H6            1 RES     
   15488 H6         502.9222  -427.8814  -345.1920 H6            1 RES     
   15489 H6         504.6333  -428.2815  -344.8027 H6            1 RES     
   15490 H6         503.8384  -429.1562  -347.0064 H6            1 RES     
   15491 H6         503.4954  -427.4781  -347.5627 H6            1 RES     
   15492 H6         505.9849  -426.9526  -347.3631 H6            1 RES     
   15493 H6         506.2487  -428.6099  -346.7090 H6            1 RES     
   15494 H6         505.4890  -429.6023  -348.8707 H6            1 RES     
   15495 H6         506.9179  -428.5211  -349.0409 H6            1 RES     
   15496 H6         504.0139  -427.7511  -349.7537 H6            1 RES     
   15497 H6         505.4620  -426.6676  -349.8603 H6            1 RES     
   15498 H6         505.3450  -428.1434  -350.8910 H6            1 RES     
   15499 H6         498.9754  -424.8883  -344.3921 H6            1 RES     
   15500 H6         498.0775  -423.6598  -345.0433 H6            1 RES     
   15501 H6         498.0187  -424.3718  -342.4602 H6            1 RES     
   15502 H6         499.3765  -423.2229  -342.2542 H6            1 RES     
   15503 H6         496.5078  -422.7138  -343.4209 H6            1 RES     
   15504 H6         497.7560  -421.4613  -343.2440 H6            1 RES     
   15505 H6         497.8178  -421.6040  -340.8492 H6            1 RES     
   15506 H6         496.2646  -421.1014  -341.6175 H6            1 RES     
   15507 H6         495.2286  -423.2254  -341.2691 H6            1 RES     
   15508 H6         496.6799  -423.8482  -340.3835 H6            1 RES     
   15509 H6         496.5273  -421.9728  -338.7538 H6            1 RES     
   15510 H6         495.1450  -421.2382  -339.6347 H6            1 RES     
   15511 H6         494.4576  -422.4035  -337.5853 H6            1 RES     
   15512 H6         495.0708  -423.9737  -338.2280 H6            1 RES     
   15513 H6         493.3834  -423.7954  -340.1208 H6            1 RES     
   15514 H6         492.5859  -423.6882  -338.5145 H6            1 RES     
   15515 H6         492.8561  -422.1891  -339.4771 H6            1 RES     
   15516 C0         503.7269  -417.5811  -357.5863 C0            1 RES     
   15517 C1         503.5254  -417.1990  -356.1033 C1            1 RES     
   15518 C1         504.2611  -416.1152  -355.7438 C1            1 RES     
   15519 S2         504.1367  -415.7301  -354.1195 S2            1 RES     
   15520 C1         503.1072  -417.0490  -353.8173 C1            1 RES     
   15521 C1         502.8807  -417.7713  -354.9940 C1            1 RES     
   15522 C1         505.0194  -415.6907  -356.8563 C1            1 RES     
   15523 C1         504.8105  -416.5463  -357.8932 C1            1 RES     
   15524 C1         505.6349  -416.2730  -358.9781 C1            1 RES     
   15525 C1         506.4415  -415.1526  -358.7164 C1            1 RES     
   15526 S2         506.1576  -414.5183  -357.1671 S2            1 RES     
   15527 H3         502.3163  -418.6845  -354.9932 H3            1 RES     
   15528 H3         505.6545  -416.8493  -359.8953 H3            1 RES     
   15529 N4         508.4195  -412.8744  -360.9407 N4            1 RES     
   15530 C1         507.4014  -413.3628  -360.1733 C1            1 RES     
   15531 C1         507.4980  -414.6319  -359.5769 C1            1 RES     
   15532 C1         508.6702  -415.3642  -359.7733 C1            1 RES     
   15533 N4         508.9147  -416.5744  -359.2084 N4            1 RES     
   15534 S2         510.4452  -416.9054  -359.7376 S2            1 RES     
   15535 N4         510.8366  -415.5902  -360.6625 N4            1 RES     
   15536 C1         509.7209  -414.8266  -360.5583 C1            1 RES     
   15537 C1         509.5689  -413.5757  -361.1506 C1            1 RES     
   15538 H5         506.5058  -412.7637  -360.0330 H5            1 RES     
   15539 C0         502.5491  -417.3836  -358.6043 C0            1 RES     
   15540 C0         501.9319  -416.0648  -359.2057 C0            1 RES     
   15541 C0         500.7029  -416.5402  -360.0578 C0            1 RES     
   15542 C0         499.9383  -415.4599  -360.8328 C0            1 RES     
   15543 C0         498.7201  -416.0349  -361.5931 C0            1 RES     
   15544 C0         499.0409  -417.0736  -362.6904 C0            1 RES     
   15545 C0         500.0407  -416.5988  -363.7596 C0            1 RES     
   15546 C0         499.5850  -415.3209  -364.4862 C0            1 RES     
   15547 C0         500.6098  -414.8179  -365.5129 C0            1 RES     
   15548 C0         500.7811  -415.7659  -366.7119 C0            1 RES     
   15549 C0         501.7217  -415.1990  -367.7872 C0            1 RES     
   15550 C0         503.1667  -415.0549  -367.3083 C0            1 RES     
   15551 C0         501.5631  -414.8803  -358.2538 C0            1 RES     
   15552 C0         500.4355  -415.0763  -357.1942 C0            1 RES     
   15553 C0         501.0204  -414.8412  -355.7982 C0            1 RES     
   15554 C0         500.2001  -415.2906  -354.5924 C0            1 RES     
   15555 C0         499.0713  -414.3667  -354.1592 C0            1 RES     
   15556 C0         498.4132  -414.9838  -352.9073 C0            1 RES     
   15557 C0         497.3797  -414.0813  -352.2295 C0            1 RES     
   15558 C0         498.0190  -412.8503  -351.5834 C0            1 RES     
   15559 H6         501.7146  -417.8945  -358.1964 H6            1 RES     
   15560 H6         502.8734  -417.9457  -359.5090 H6            1 RES     
   15561 H6         502.6964  -415.6421  -359.8951 H6            1 RES     
   15562 H6         499.9697  -417.0467  -359.3926 H6            1 RES     
   15563 H6         501.0687  -417.2931  -360.7884 H6            1 RES     
   15564 H6         500.6224  -414.9346  -361.5298 H6            1 RES     
   15565 H6         499.5314  -414.7167  -360.1177 H6            1 RES     
   15566 H6         498.1687  -415.1881  -362.0517 H6            1 RES     
   15567 H6         498.0230  -416.5071  -360.8658 H6            1 RES     
   15568 H6         498.0862  -417.3557  -363.1877 H6            1 RES     
   15569 H6         499.4453  -417.9976  -362.2245 H6            1 RES     
   15570 H6         501.0282  -416.4207  -363.2840 H6            1 RES     
   15571 H6         500.1608  -417.4264  -364.4892 H6            1 RES     
   15572 H6         499.4692  -414.5074  -363.7413 H6            1 RES     
   15573 H6         498.6017  -415.4866  -364.9784 H6            1 RES     
   15574 H6         500.2483  -413.8385  -365.8953 H6            1 RES     
   15575 H6         501.5778  -414.6533  -364.9947 H6            1 RES     
   15576 H6         501.1658  -416.7543  -366.3856 H6            1 RES     
   15577 H6         499.7835  -415.9147  -367.1797 H6            1 RES     
   15578 H6         501.3443  -414.2131  -368.1366 H6            1 RES     
   15579 H6         501.7173  -415.8965  -368.6524 H6            1 RES     
   15580 H6         503.2463  -414.3273  -366.4756 H6            1 RES     
   15581 H6         503.5601  -416.0393  -366.9765 H6            1 RES     
   15582 H6         503.7957  -414.6847  -368.1447 H6            1 RES     
   15583 H6         501.2583  -414.0214  -358.8893 H6            1 RES     
   15584 H6         502.4985  -414.5093  -357.7826 H6            1 RES     
   15585 H6         499.6121  -414.3444  -357.3535 H6            1 RES     
   15586 H6         500.0104  -416.0974  -357.2745 H6            1 RES     
   15587 H6         501.4006  -413.8060  -355.6693 H6            1 RES     
   15588 H6         501.8640  -415.4977  -355.7726 H6            1 RES     
   15589 H6         499.8326  -416.3046  -354.7682 H6            1 RES     
   15590 H6         500.9080  -415.3429  -353.7341 H6            1 RES     
   15591 H6         499.5262  -413.3816  -353.9224 H6            1 RES     
   15592 H6         498.3192  -414.2382  -354.9661 H6            1 RES     
   15593 H6         497.9163  -415.9325  -353.2128 H6            1 RES     
   15594 H6         499.1862  -415.2400  -352.1472 H6            1 RES     
   15595 H6         496.8987  -414.6695  -351.4173 H6            1 RES     
   15596 H6         496.5964  -413.7793  -352.9562 H6            1 RES     
   15597 H6         498.4874  -412.1909  -352.3404 H6            1 RES     
   15598 H6         497.2421  -412.2672  -351.0486 H6            1 RES     
   15599 H6         498.7919  -413.1632  -350.8463 H6            1 RES     
   15600 C0         504.2490  -419.0719  -357.5600 C0            1 RES     
   15601 C0         503.4489  -420.3469  -358.0894 C0            1 RES     
   15602 C0         504.0800  -421.5915  -357.3787 C0            1 RES     
   15603 C0         503.6486  -422.9647  -357.9322 C0            1 RES     
   15604 C0         504.2740  -424.1586  -357.1894 C0            1 RES     
   15605 C0         505.8115  -424.2278  -357.2098 C0            1 RES     
   15606 C0         506.4495  -424.1751  -358.6079 C0            1 RES     
   15607 C0         505.9588  -425.2907  -359.5474 C0            1 RES     
   15608 C0         506.6020  -425.2209  -360.9419 C0            1 RES     
   15609 C0         508.1135  -425.5105  -360.9194 C0            1 RES     
   15610 C0         508.7353  -425.5650  -362.3235 C0            1 RES     
   15611 C0         508.6993  -424.2214  -363.0519 C0            1 RES     
   15612 C0         501.8691  -420.4710  -358.1660 C0            1 RES     
   15613 C0         500.9856  -420.5374  -356.8882 C0            1 RES     
   15614 C0         500.2117  -419.2297  -356.6421 C0            1 RES     
   15615 C0         499.3653  -419.1662  -355.3814 C0            1 RES     
   15616 C0         498.0817  -419.9842  -355.3695 C0            1 RES     
   15617 C0         497.3257  -419.6196  -354.0755 C0            1 RES     
   15618 C0         495.9290  -420.2334  -353.9621 C0            1 RES     
   15619 C0         494.9561  -419.6572  -354.9919 C0            1 RES     
   15620 H6         504.6201  -419.2866  -356.5308 H6            1 RES     
   15621 H6         505.2061  -419.0959  -358.1286 H6            1 RES     
   15622 H6         503.7294  -420.4040  -359.1665 H6            1 RES     
   15623 H6         503.8345  -421.5541  -356.2954 H6            1 RES     
   15624 H6         505.1840  -421.5171  -357.4817 H6            1 RES     
   15625 H6         503.8900  -423.0166  -359.0146 H6            1 RES     
   15626 H6         502.5571  -423.1038  -357.8086 H6            1 RES     
   15627 H6         503.8659  -425.0883  -357.6403 H6            1 RES     
   15628 H6         503.9415  -424.1439  -356.1281 H6            1 RES     
   15629 H6         506.1163  -425.1704  -356.7047 H6            1 RES     
   15630 H6         506.2240  -423.3880  -356.6109 H6            1 RES     
   15631 H6         506.2431  -423.1877  -359.0736 H6            1 RES     
   15632 H6         507.5457  -424.2575  -358.4606 H6            1 RES     
   15633 H6         504.8641  -425.1805  -359.6945 H6            1 RES     
   15634 H6         506.1503  -426.2876  -359.0948 H6            1 RES     
   15635 H6         506.1114  -425.9901  -361.5774 H6            1 RES     
   15636 H6         506.3953  -424.2224  -361.3824 H6            1 RES     
   15637 H6         508.6559  -424.7496  -360.3213 H6            1 RES     
   15638 H6         508.2675  -426.5040  -360.4443 H6            1 RES     
   15639 H6         508.2177  -426.3356  -362.9352 H6            1 RES     
   15640 H6         509.7997  -425.8662  -362.2163 H6            1 RES     
   15641 H6         507.6575  -423.8906  -363.2373 H6            1 RES     
   15642 H6         509.2321  -423.4484  -362.4581 H6            1 RES     
   15643 H6         509.2051  -424.3240  -364.0349 H6            1 RES     
   15644 H6         501.6899  -421.4256  -358.6940 H6            1 RES     
   15645 H6         501.4161  -419.8103  -358.9289 H6            1 RES     
   15646 H6         500.1923  -421.2969  -357.0647 H6            1 RES     
   15647 H6         501.5781  -420.8731  -356.0131 H6            1 RES     
   15648 H6         499.5878  -418.9789  -357.5298 H6            1 RES     
   15649 H6         500.9101  -418.4154  -356.4849 H6            1 RES     
   15650 H6         499.9940  -419.3893  -354.4921 H6            1 RES     
   15651 H6         499.0202  -418.1205  -355.3271 H6            1 RES     
   15652 H6         497.4881  -419.6962  -356.2628 H6            1 RES     
   15653 H6         498.2983  -421.0721  -355.4090 H6            1 RES     
   15654 H6         497.9381  -419.9596  -353.2115 H6            1 RES     
   15655 H6         497.2124  -418.5141  -353.9927 H6            1 RES     
   15656 H6         495.5365  -419.9775  -352.9534 H6            1 RES     
   15657 H6         495.9883  -421.3363  -354.0507 H6            1 RES     
   15658 H6         495.2640  -419.9096  -356.0260 H6            1 RES     
   15659 H6         493.9455  -420.0802  -354.8176 H6            1 RES     
   15660 H6         494.8966  -418.5514  -354.8890 H6            1 RES     
   15661 C0         512.7278  -412.2921  -365.3876 C0            1 RES     
   15662 C1         512.0506  -412.4009  -364.0036 C1            1 RES     
   15663 C1         512.8065  -411.8585  -363.0138 C1            1 RES     
   15664 S2         512.1434  -412.0419  -361.4877 S2            1 RES     
   15665 C1         510.8135  -412.9085  -362.0970 C1            1 RES     
   15666 C1         510.9130  -413.0426  -363.4861 C1            1 RES     
   15667 C1         514.0140  -411.3849  -363.5711 C1            1 RES     
   15668 C1         514.0448  -411.6890  -364.8967 C1            1 RES     
   15669 C1         515.2670  -411.3798  -365.4815 C1            1 RES     
   15670 C1         516.1326  -410.7979  -364.5400 C1            1 RES     
   15671 S2         515.4118  -410.6817  -363.0069 S2            1 RES     
   15672 H3         510.2066  -413.6250  -364.0467 H3            1 RES     
   15673 H3         515.5167  -411.5677  -366.5189 H3            1 RES     
   15674 N4         519.2760  -408.7855  -364.8862 N4            1 RES     
   15675 C1         517.9577  -409.0997  -364.7202 C1            1 RES     
   15676 C1         517.5288  -410.4377  -364.7606 C1            1 RES     
   15677 C1         518.4900  -411.4318  -364.9518 C1            1 RES     
   15678 N4         518.2186  -412.7621  -364.9537 N4            1 RES     
   15679 S2         519.7191  -413.4258  -365.1530 S2            1 RES     
   15680 N4         520.7228  -412.1133  -365.2436 N4            1 RES     
   15681 C1         519.8552  -411.0809  -365.1020 C1            1 RES     
   15682 C1         520.2290  -409.7398  -365.0808 C1            1 RES     
   15683 H5         517.2359  -408.3026  -364.5645 H5            1 RES     
   15684 C0         512.1195  -411.3379  -366.4749 C0            1 RES     
   15685 C0         512.0966  -409.7646  -366.5528 C0            1 RES     
   15686 C0         511.2285  -409.4304  -367.8165 C0            1 RES     
   15687 C0         511.0894  -407.9491  -368.1890 C0            1 RES     
   15688 C0         510.1728  -407.7366  -369.4168 C0            1 RES     
   15689 C0         510.6596  -408.3721  -370.7378 C0            1 RES     
   15690 C0         512.0769  -407.9585  -371.1720 C0            1 RES     
   15691 C0         512.2383  -406.4364  -371.3327 C0            1 RES     
   15692 C0         513.6675  -406.0224  -371.7115 C0            1 RES     
   15693 C0         514.0808  -406.4895  -373.1174 C0            1 RES     
   15694 C0         515.4680  -405.9725  -373.5306 C0            1 RES     
   15695 C0         516.6020  -406.5431  -372.6781 C0            1 RES     
   15696 C0         511.6564  -408.9354  -365.3023 C0            1 RES     
   15697 C0         510.1905  -409.0580  -364.7837 C0            1 RES     
   15698 C0         510.2170  -409.5519  -363.3340 C0            1 RES     
   15699 C0         508.9120  -410.0565  -362.7248 C0            1 RES     
   15700 C0         507.9391  -408.9946  -362.2337 C0            1 RES     
   15701 C0         506.7236  -409.7195  -361.6184 C0            1 RES     
   15702 C0         505.7350  -408.7955  -360.9036 C0            1 RES     
   15703 C0         506.3249  -408.1897  -359.6283 C0            1 RES     
   15704 H6         511.1013  -411.6146  -366.5773 H6            1 RES     
   15705 H6         512.6395  -411.6295  -367.4153 H6            1 RES     
   15706 H6         513.1434  -409.4412  -366.7486 H6            1 RES     
   15707 H6         510.2008  -409.8293  -367.6711 H6            1 RES     
   15708 H6         511.6749  -409.9622  -368.6839 H6            1 RES     
   15709 H6         512.0900  -407.5050  -368.3660 H6            1 RES     
   15710 H6         510.6102  -407.4053  -367.3500 H6            1 RES     
   15711 H6         510.0482  -406.6446  -369.5692 H6            1 RES     
   15712 H6         509.1606  -408.1407  -369.1934 H6            1 RES     
   15713 H6         509.9400  -408.0940  -371.5398 H6            1 RES     
   15714 H6         510.6331  -409.4795  -370.6526 H6            1 RES     
   15715 H6         512.8113  -408.3309  -370.4270 H6            1 RES     
   15716 H6         512.2870  -408.4651  -372.1368 H6            1 RES     
   15717 H6         512.0229  -405.9489  -370.3602 H6            1 RES     
   15718 H6         511.5169  -406.0492  -372.0853 H6            1 RES     
   15719 H6         513.7117  -404.9117  -371.6891 H6            1 RES     
   15720 H6         514.3648  -406.4140  -370.9413 H6            1 RES     
   15721 H6         514.0772  -407.5971  -373.1855 H6            1 RES     
   15722 H6         513.3408  -406.0908  -373.8451 H6            1 RES     
   15723 H6         515.4866  -404.8619  -373.4814 H6            1 RES     
   15724 H6         515.6491  -406.2744  -374.5848 H6            1 RES     
   15725 H6         516.5076  -406.2316  -371.6184 H6            1 RES     
   15726 H6         516.6049  -407.6523  -372.7375 H6            1 RES     
   15727 H6         517.5738  -406.1646  -373.0586 H6            1 RES     
   15728 H6         511.8239  -407.8621  -365.5353 H6            1 RES     
   15729 H6         512.3887  -409.1206  -364.4875 H6            1 RES     
   15730 H6         509.6802  -408.0690  -364.8044 H6            1 RES     
   15731 H6         509.6163  -409.7566  -365.4256 H6            1 RES     
   15732 H6         510.7352  -408.8414  -362.6561 H6            1 RES     
   15733 H6         510.8146  -410.4369  -363.3879 H6            1 RES     
   15734 H6         508.4282  -410.7370  -363.4297 H6            1 RES     
   15735 H6         509.1956  -410.6578  -361.8312 H6            1 RES     
   15736 H6         508.4705  -408.3921  -361.4668 H6            1 RES     
   15737 H6         507.6127  -408.3290  -363.0606 H6            1 RES     
   15738 H6         506.1897  -410.2513  -362.4384 H6            1 RES     
   15739 H6         507.0587  -410.4867  -360.8837 H6            1 RES     
   15740 H6         504.8565  -409.4082  -360.6036 H6            1 RES     
   15741 H6         505.3877  -407.9964  -361.5918 H6            1 RES     
   15742 H6         507.1862  -407.5299  -359.8522 H6            1 RES     
   15743 H6         505.5507  -407.5863  -359.1124 H6            1 RES     
   15744 H6         506.6564  -408.9981  -358.9387 H6            1 RES     
   15745 C0         512.8532  -413.7802  -365.9026 C0            1 RES     
   15746 C0         512.0642  -414.4055  -367.1407 C0            1 RES     
   15747 C0         512.0730  -415.9575  -366.9324 C0            1 RES     
   15748 C0         511.6008  -416.7944  -368.1386 C0            1 RES     
   15749 C0         511.6032  -418.3117  -367.8815 C0            1 RES     
   15750 C0         512.9684  -418.9276  -367.5269 C0            1 RES     
   15751 C0         514.0983  -418.6324  -368.5273 C0            1 RES     
   15752 C0         513.7816  -419.0915  -369.9616 C0            1 RES     
   15753 C0         514.9185  -418.7848  -370.9498 C0            1 RES     
   15754 C0         516.1948  -419.5965  -370.6651 C0            1 RES     
   15755 C0         517.2888  -419.3858  -371.7234 C0            1 RES     
   15756 C0         517.8401  -417.9601  -371.7458 C0            1 RES     
   15757 C0         510.6565  -413.9074  -367.6765 C0            1 RES     
   15758 C0         509.3516  -414.0829  -366.8492 C0            1 RES     
   15759 C0         508.8540  -412.7548  -366.2509 C0            1 RES     
   15760 C0         507.6178  -412.8257  -365.3696 C0            1 RES     
   15761 C0         506.2859  -413.0662  -366.0664 C0            1 RES     
   15762 C0         505.1840  -412.9217  -364.9968 C0            1 RES     
   15763 C0         503.7567  -412.9794  -365.5442 C0            1 RES     
   15764 C0         503.4199  -411.7692  -366.4166 C0            1 RES     
   15765 H6         512.7332  -414.4575  -365.0252 H6            1 RES     
   15766 H6         513.9254  -413.9550  -366.1471 H6            1 RES     
   15767 H6         512.7246  -414.1851  -368.0109 H6            1 RES     
   15768 H6         511.4371  -416.2098  -366.0565 H6            1 RES     
   15769 H6         513.1154  -416.2621  -366.6968 H6            1 RES     
   15770 H6         512.2295  -416.5534  -369.0213 H6            1 RES     
   15771 H6         510.5472  -416.5573  -368.3825 H6            1 RES     
   15772 H6         511.2097  -418.8094  -368.7936 H6            1 RES     
   15773 H6         510.8932  -418.5441  -367.0575 H6            1 RES     
   15774 H6         512.8335  -420.0282  -367.4428 H6            1 RES     
   15775 H6         513.2877  -418.5604  -366.5282 H6            1 RES     
   15776 H6         514.3155  -417.5429  -368.5317 H6            1 RES     
   15777 H6         515.0008  -419.1561  -368.1514 H6            1 RES     
   15778 H6         512.8865  -418.5444  -370.3242 H6            1 RES     
   15779 H6         513.5541  -420.1794  -369.9766 H6            1 RES     
   15780 H6         514.5594  -419.0497  -371.9682 H6            1 RES     
   15781 H6         515.1280  -417.6942  -370.9277 H6            1 RES     
   15782 H6         516.6129  -419.3446  -369.6687 H6            1 RES     
   15783 H6         515.9258  -420.6754  -370.6693 H6            1 RES     
   15784 H6         516.8960  -419.6504  -372.7292 H6            1 RES     
   15785 H6         518.1301  -420.0731  -371.4891 H6            1 RES     
   15786 H6         517.0561  -417.2286  -372.0275 H6            1 RES     
   15787 H6         518.2540  -417.6929  -370.7502 H6            1 RES     
   15788 H6         518.6547  -417.8942  -372.4974 H6            1 RES     
   15789 H6         510.4922  -414.4838  -368.6054 H6            1 RES     
   15790 H6         510.6977  -412.9069  -368.1467 H6            1 RES     
   15791 H6         508.5445  -414.3873  -367.5514 H6            1 RES     
   15792 H6         509.4628  -414.8925  -366.0998 H6            1 RES     
   15793 H6         508.7008  -412.0026  -367.0577 H6            1 RES     
   15794 H6         509.5962  -412.3616  -365.5652 H6            1 RES     
   15795 H6         507.7806  -413.5563  -364.5477 H6            1 RES     
   15796 H6         507.5200  -411.8148  -364.9408 H6            1 RES     
   15797 H6         506.1703  -412.2911  -366.8532 H6            1 RES     
   15798 H6         506.2537  -414.0717  -366.5353 H6            1 RES     
   15799 H6         505.3164  -413.7385  -364.2535 H6            1 RES     
   15800 H6         505.2954  -411.9538  -364.4557 H6            1 RES     
   15801 H6         503.0673  -412.9633  -364.6717 H6            1 RES     
   15802 H6         503.6000  -413.9233  -366.1031 H6            1 RES     
   15803 H6         504.0446  -411.7425  -367.3314 H6            1 RES     
   15804 H6         502.3557  -411.8247  -366.7245 H6            1 RES     
   15805 H6         503.5714  -410.8278  -365.8442 H6            1 RES     
   15806 C0         524.9959  -408.3233  -367.2827 C0            1 RES     
   15807 C1         523.8242  -408.6477  -366.3300 C1            1 RES     
   15808 C1         524.2309  -408.7983  -365.0427 C1            1 RES     
   15809 S2         522.9994  -409.2415  -363.9988 S2            1 RES     
   15810 C1         521.8593  -409.2922  -365.2591 C1            1 RES     
   15811 C1         522.4635  -408.9643  -366.4777 C1            1 RES     
   15812 C1         525.6323  -408.6389  -364.9866 C1            1 RES     
   15813 C1         526.1126  -408.4546  -366.2460 C1            1 RES     
   15814 C1         527.5017  -408.4330  -366.2839 C1            1 RES     
   15815 C1         528.0340  -408.5730  -364.9911 C1            1 RES     
   15816 S2         526.8147  -408.7386  -363.8209 S2            1 RES     
   15817 H3         521.9237  -409.0147  -367.4043 H3            1 RES     
   15818 H3         528.0900  -408.3281  -367.1876 H3            1 RES     
   15819 N4         531.4218  -407.8665  -363.5511 N4            1 RES     
   15820 C1         530.1102  -407.7124  -363.8976 C1            1 RES     
   15821 C1         529.4467  -408.6970  -364.6499 C1            1 RES     
   15822 C1         530.1596  -409.8419  -365.0104 C1            1 RES     
   15823 N4         529.6233  -410.8910  -365.6851 N4            1 RES     
   15824 S2         530.8940  -411.9451  -365.7616 S2            1 RES     
   15825 N4         532.1164  -411.1477  -364.9817 N4            1 RES     
   15826 C1         531.5150  -409.9870  -364.6215 C1            1 RES     
   15827 C1         532.1375  -408.9727  -363.8987 C1            1 RES     
   15828 H5         529.5813  -406.8132  -363.5936 H5            1 RES     
   15829 C0         525.0909  -406.9002  -367.9375 C0            1 RES     
   15830 C0         525.4496  -405.5058  -367.2980 C0            1 RES     
   15831 C0         525.2446  -404.4622  -368.4517 C0            1 RES     
   15832 C0         525.5947  -403.0028  -368.1355 C0            1 RES     
   15833 C0         525.3053  -402.0589  -369.3264 C0            1 RES     
   15834 C0         526.1174  -402.3295  -370.6121 C0            1 RES     
   15835 C0         527.6446  -402.3413  -370.4233 C0            1 RES     
   15836 C0         528.1890  -401.0300  -369.8293 C0            1 RES     
   15837 C0         529.7052  -401.0650  -369.5899 C0            1 RES     
   15838 C0         530.5224  -401.1338  -370.8911 C0            1 RES     
   15839 C0         532.0374  -401.0526  -370.6455 C0            1 RES     
   15840 C0         532.5889  -402.2557  -369.8795 C0            1 RES     
   15841 C0         524.7496  -405.0606  -365.9725 C0            1 RES     
   15842 C0         523.2104  -404.8088  -365.9705 C0            1 RES     
   15843 C0         522.5558  -405.7464  -364.9514 C0            1 RES     
   15844 C0         521.0400  -405.9148  -365.0028 C0            1 RES     
   15845 C0         520.2140  -404.8109  -364.3591 C0            1 RES     
   15846 C0         518.7269  -405.2045  -364.4815 C0            1 RES     
   15847 C0         517.7686  -404.2913  -363.7135 C0            1 RES     
   15848 C0         517.9290  -404.4251  -362.1977 C0            1 RES     
   15849 H6         524.1608  -406.7308  -368.4170 H6            1 RES     
   15850 H6         525.8595  -407.0175  -368.7345 H6            1 RES     
   15851 H6         526.5326  -405.5423  -367.0440 H6            1 RES     
   15852 H6         524.1817  -404.4806  -368.7779 H6            1 RES     
   15853 H6         525.8656  -404.7852  -369.3145 H6            1 RES     
   15854 H6         526.6558  -402.9245  -367.8229 H6            1 RES     
   15855 H6         524.9582  -402.6476  -367.3001 H6            1 RES     
   15856 H6         525.4958  -401.0172  -368.9949 H6            1 RES     
   15857 H6         524.2244  -402.1143  -369.5843 H6            1 RES     
   15858 H6         525.8513  -401.5483  -371.3587 H6            1 RES     
   15859 H6         525.8149  -403.3058  -371.0475 H6            1 RES     
   15860 H6         527.9255  -403.1896  -369.7641 H6            1 RES     
   15861 H6         528.0985  -402.5223  -371.4197 H6            1 RES     
   15862 H6         527.7231  -400.8662  -368.8363 H6            1 RES     
   15863 H6         527.9261  -400.1710  -370.4848 H6            1 RES     
   15864 H6         529.9821  -400.1294  -369.0567 H6            1 RES     
   15865 H6         529.9387  -401.9250  -368.9276 H6            1 RES     
   15866 H6         530.3005  -402.0657  -371.4512 H6            1 RES     
   15867 H6         530.2356  -400.2666  -371.5251 H6            1 RES     
   15868 H6         532.2808  -400.1170  -370.0962 H6            1 RES     
   15869 H6         532.5458  -401.0151  -371.6330 H6            1 RES     
   15870 H6         532.1577  -402.3184  -368.8600 H6            1 RES     
   15871 H6         532.3690  -403.1944  -370.4311 H6            1 RES     
   15872 H6         533.6896  -402.1531  -369.7776 H6            1 RES     
   15873 H6         525.2285  -404.1142  -365.6416 H6            1 RES     
   15874 H6         525.0427  -405.7706  -365.1697 H6            1 RES     
   15875 H6         522.9820  -403.7603  -365.6746 H6            1 RES     
   15876 H6         522.7949  -404.9800  -366.9843 H6            1 RES     
   15877 H6         522.9098  -405.5569  -363.9162 H6            1 RES     
   15878 H6         522.9144  -406.7112  -365.2409 H6            1 RES     
   15879 H6         520.7339  -406.0817  -366.0385 H6            1 RES     
   15880 H6         520.8093  -406.8471  -364.4387 H6            1 RES     
   15881 H6         520.5209  -404.7503  -363.2934 H6            1 RES     
   15882 H6         520.3945  -403.8305  -364.8483 H6            1 RES     
   15883 H6         518.4541  -405.1848  -365.5610 H6            1 RES     
   15884 H6         518.5677  -406.2440  -364.1144 H6            1 RES     
   15885 H6         516.7309  -404.6025  -363.9654 H6            1 RES     
   15886 H6         517.9056  -403.2358  -364.0297 H6            1 RES     
   15887 H6         518.9319  -404.0932  -361.8641 H6            1 RES     
   15888 H6         517.1691  -403.7985  -361.6881 H6            1 RES     
   15889 H6         517.7752  -405.4832  -361.8887 H6            1 RES     
   15890 C0         524.9803  -409.4767  -368.3621 C0            1 RES     
   15891 C0         524.6232  -409.2997  -369.9072 C0            1 RES     
   15892 C0         524.2054  -410.7157  -370.4296 C0            1 RES     
   15893 C0         524.0718  -410.8486  -371.9601 C0            1 RES     
   15894 C0         523.6368  -412.2490  -372.4269 C0            1 RES     
   15895 C0         524.5800  -413.4038  -372.0451 C0            1 RES     
   15896 C0         526.0466  -413.2169  -372.4678 C0            1 RES     
   15897 C0         526.2250  -413.0016  -373.9811 C0            1 RES     
   15898 C0         527.6956  -412.8114  -374.3864 C0            1 RES     
   15899 C0         528.5435  -414.0787  -374.1761 C0            1 RES     
   15900 C0         529.9820  -413.9315  -374.6958 C0            1 RES     
   15901 C0         530.7988  -412.8941  -373.9253 C0            1 RES     
   15902 C0         523.6871  -408.1684  -370.5079 C0            1 RES     
   15903 C0         522.1587  -408.1280  -370.2245 C0            1 RES     
   15904 C0         521.7739  -407.0054  -369.2442 C0            1 RES     
   15905 C0         520.3088  -406.9184  -368.8495 C0            1 RES     
   15906 C0         519.3399  -406.3973  -369.9016 C0            1 RES     
   15907 C0         517.9686  -406.2386  -369.2136 C0            1 RES     
   15908 C0         516.8964  -405.5763  -370.0808 C0            1 RES     
   15909 C0         517.2062  -404.1058  -370.3652 C0            1 RES     
   15910 H6         524.3788  -410.3212  -367.9522 H6            1 RES     
   15911 H6         525.9947  -409.9360  -368.3682 H6            1 RES     
   15912 H6         525.6030  -409.0504  -370.3760 H6            1 RES     
   15913 H6         523.2381  -411.0035  -369.9640 H6            1 RES     
   15914 H6         524.9761  -411.4421  -370.0931 H6            1 RES     
   15915 H6         525.0327  -410.5655  -372.4386 H6            1 RES     
   15916 H6         523.2794  -410.1734  -372.3372 H6            1 RES     
   15917 H6         523.5332  -412.2195  -373.5326 H6            1 RES     
   15918 H6         522.6282  -412.4746  -372.0160 H6            1 RES     
   15919 H6         524.1828  -414.3342  -372.5067 H6            1 RES     
   15920 H6         524.5546  -413.5490  -370.9440 H6            1 RES     
   15921 H6         526.4836  -412.3538  -371.9216 H6            1 RES     
   15922 H6         526.5888  -414.1299  -372.1476 H6            1 RES     
   15923 H6         525.6894  -412.0756  -374.2775 H6            1 RES     
   15924 H6         525.7867  -413.8528  -374.5457 H6            1 RES     
   15925 H6         527.7160  -412.5567  -375.4684 H6            1 RES     
   15926 H6         528.1156  -411.9537  -373.8192 H6            1 RES     
   15927 H6         528.5816  -414.3588  -373.1032 H6            1 RES     
   15928 H6         528.0659  -414.9106  -374.7383 H6            1 RES     
   15929 H6         529.9673  -413.6684  -375.7758 H6            1 RES     
   15930 H6         530.4889  -414.9145  -374.5863 H6            1 RES     
   15931 H6         530.3715  -411.8776  -374.0401 H6            1 RES     
   15932 H6         530.8369  -413.1592  -372.8472 H6            1 RES     
   15933 H6         531.8356  -412.8757  -374.3224 H6            1 RES     
   15934 H6         523.7772  -408.2850  -371.6035 H6            1 RES     
   15935 H6         524.1300  -407.1567  -370.4452 H6            1 RES     
   15936 H6         521.6462  -407.8525  -371.1725 H6            1 RES     
   15937 H6         521.7845  -409.1273  -369.9228 H6            1 RES     
   15938 H6         522.1204  -406.0205  -369.6318 H6            1 RES     
   15939 H6         522.2546  -407.1746  -368.2872 H6            1 RES     
   15940 H6         519.9698  -407.8934  -368.4367 H6            1 RES     
   15941 H6         520.2773  -406.1576  -368.0522 H6            1 RES     
   15942 H6         519.7172  -405.4133  -370.2518 H6            1 RES     
   15943 H6         519.2725  -407.0920  -370.7646 H6            1 RES     
   15944 H6         517.6142  -407.2497  -368.9149 H6            1 RES     
   15945 H6         518.0701  -405.6304  -368.2854 H6            1 RES     
   15946 H6         515.9421  -405.6115  -369.5107 H6            1 RES     
   15947 H6         516.7667  -406.1410  -371.0253 H6            1 RES     
   15948 H6         518.1287  -403.9953  -370.9689 H6            1 RES     
   15949 H6         516.3646  -403.6574  -370.9320 H6            1 RES     
   15950 H6         517.3254  -403.5460  -369.4116 H6            1 RES     
   15951 C0         537.5708  -408.7341  -363.8840 C0            1 RES     
   15952 C1         536.0791  -408.9146  -363.5261 C1            1 RES     
   15953 C1         535.9037  -409.6387  -362.3903 C1            1 RES     
   15954 S2         534.2966  -409.9313  -362.0241 S2            1 RES     
   15955 C1         533.7620  -409.1217  -363.4204 C1            1 RES     
   15956 C1         534.8522  -408.6384  -364.1522 C1            1 RES     
   15957 C1         537.1681  -410.0339  -361.9027 C1            1 RES     
   15958 C1         538.1319  -409.6151  -362.7668 C1            1 RES     
   15959 C1         539.3916  -410.0923  -362.4249 C1            1 RES     
   15960 C1         539.3285  -410.8553  -361.2467 C1            1 RES     
   15961 S2         537.7441  -410.9562  -360.6441 S2            1 RES     
   15962 H3         534.7228  -408.1639  -365.1064 H3            1 RES     
   15963 H3         540.2946  -409.9048  -362.9933 H3            1 RES     
   15964 N4         541.9444  -411.9840  -358.8109 N4            1 RES     
   15965 C1         540.9436  -411.2505  -359.3805 C1            1 RES     
   15966 C1         540.4283  -411.5979  -360.6413 C1            1 RES     
   15967 C1         540.9525  -412.7234  -361.2795 C1            1 RES     
   15968 N4         540.5060  -413.1999  -362.4699 N4            1 RES     
   15969 S2         541.4369  -414.5496  -362.6786 S2            1 RES     
   15970 N4         542.3988  -414.5782  -361.3324 N4            1 RES     
   15971 C1         541.9778  -413.4797  -360.6581 C1            1 RES     
   15972 C1         542.4746  -413.0816  -359.4198 C1            1 RES     
   15973 H5         540.5514  -410.3851  -358.8534 H5            1 RES     
   15974 C0         538.2278  -407.3133  -363.7733 C0            1 RES     
   15975 C0         538.6061  -406.4612  -362.5033 C0            1 RES     
   15976 C0         539.1070  -405.0856  -363.0683 C0            1 RES     
   15977 C0         539.6188  -404.0626  -362.0467 C0            1 RES     
   15978 C0         540.0368  -402.7294  -362.7106 C0            1 RES     
   15979 C0         541.2064  -402.8161  -363.7158 C0            1 RES     
   15980 C0         542.4930  -403.4511  -363.1596 C0            1 RES     
   15981 C0         543.0365  -402.7232  -361.9172 C0            1 RES     
   15982 C0         544.2883  -403.3917  -361.3312 C0            1 RES     
   15983 C0         545.5131  -403.3006  -362.2570 C0            1 RES     
   15984 C0         546.7873  -403.8704  -361.6135 C0            1 RES     
   15985 C0         546.7125  -405.3766  -361.3602 C0            1 RES     
   15986 C0         537.5598  -406.2785  -361.3557 C0            1 RES     
   15987 C0         536.2406  -405.4977  -361.6439 C0            1 RES     
   15988 C0         535.0487  -406.4202  -361.3712 C0            1 RES     
   15989 C0         533.6783  -405.9926  -361.8889 C0            1 RES     
   15990 C0         532.9329  -404.9589  -361.0575 C0            1 RES     
   15991 C0         531.5662  -404.7119  -361.7300 C0            1 RES     
   15992 C0         530.6116  -403.8374  -360.9137 C0            1 RES     
   15993 C0         530.1305  -404.5359  -359.6401 C0            1 RES     
   15994 H6         537.6232  -406.6604  -364.3494 H6            1 RES     
   15995 H6         539.2007  -407.4206  -364.3041 H6            1 RES     
   15996 H6         539.4652  -406.9773  -362.0192 H6            1 RES     
   15997 H6         538.2820  -404.5993  -363.6335 H6            1 RES     
   15998 H6         539.9284  -405.2939  -363.7869 H6            1 RES     
   15999 H6         540.4608  -404.4918  -361.4664 H6            1 RES     
   16000 H6         538.8015  -403.8113  -361.3409 H6            1 RES     
   16001 H6         540.3076  -402.0139  -361.9069 H6            1 RES     
   16002 H6         539.1608  -402.2921  -363.2391 H6            1 RES     
   16003 H6         541.4348  -401.7857  -364.0686 H6            1 RES     
   16004 H6         540.8909  -403.3982  -364.6080 H6            1 RES     
   16005 H6         542.2972  -404.5147  -362.9078 H6            1 RES     
   16006 H6         543.2491  -403.4293  -363.9717 H6            1 RES     
   16007 H6         542.2672  -402.7543  -361.1189 H6            1 RES     
   16008 H6         543.2493  -401.6582  -362.1563 H6            1 RES     
   16009 H6         544.5335  -402.8692  -360.3809 H6            1 RES     
   16010 H6         544.0464  -404.4491  -361.0946 H6            1 RES     
   16011 H6         545.3284  -403.8307  -363.2143 H6            1 RES     
   16012 H6         545.6981  -402.2272  -362.4803 H6            1 RES     
   16013 H6         546.9963  -403.3412  -360.6581 H6            1 RES     
   16014 H6         547.6370  -403.6828  -362.3049 H6            1 RES     
   16015 H6         545.9137  -405.6252  -360.6327 H6            1 RES     
   16016 H6         546.5247  -405.9162  -362.3128 H6            1 RES     
   16017 H6         547.6778  -405.7265  -360.9382 H6            1 RES     
   16018 H6         538.0671  -405.7508  -360.5199 H6            1 RES     
   16019 H6         537.3491  -407.2767  -360.9158 H6            1 RES     
   16020 H6         536.1530  -404.6106  -360.9773 H6            1 RES     
   16021 H6         536.2296  -405.1428  -362.6945 H6            1 RES     
   16022 H6         535.0005  -406.7442  -360.3102 H6            1 RES     
   16023 H6         535.2686  -407.2850  -361.9604 H6            1 RES     
   16024 H6         533.7745  -405.6666  -362.9274 H6            1 RES     
   16025 H6         533.0445  -406.9085  -361.8904 H6            1 RES     
   16026 H6         532.8022  -405.3875  -360.0412 H6            1 RES     
   16027 H6         533.5033  -404.0090  -360.9836 H6            1 RES     
   16028 H6         531.7507  -404.2216  -362.7128 H6            1 RES     
   16029 H6         531.0498  -405.6784  -361.9292 H6            1 RES     
   16030 H6         529.7152  -403.6389  -361.5415 H6            1 RES     
   16031 H6         531.0919  -402.8665  -360.6698 H6            1 RES     
   16032 H6         530.9684  -404.7320  -358.9426 H6            1 RES     
   16033 H6         529.3910  -403.8924  -359.1217 H6            1 RES     
   16034 H6         529.6375  -405.5004  -359.8959 H6            1 RES     
   16035 C0         537.7249  -409.3516  -365.3299 C0            1 RES     
   16036 C0         538.0515  -408.5336  -366.6605 C0            1 RES     
   16037 C0         537.5699  -409.4232  -367.8559 C0            1 RES     
   16038 C0         538.0217  -408.9598  -369.2557 C0            1 RES     
   16039 C0         537.5063  -409.8488  -370.4012 C0            1 RES     
   16040 C0         537.9426  -411.3240  -370.3508 C0            1 RES     
   16041 C0         539.4591  -411.5536  -370.2418 C0            1 RES     
   16042 C0         540.2598  -410.9098  -371.3874 C0            1 RES     
   16043 C0         541.7739  -411.1441  -371.2610 C0            1 RES     
   16044 C0         542.1675  -412.6222  -371.4326 C0            1 RES     
   16045 C0         543.6883  -412.8424  -371.4317 C0            1 RES     
   16046 C0         544.3450  -412.5119  -370.0912 C0            1 RES     
   16047 C0         537.7022  -407.0057  -366.9063 C0            1 RES     
   16048 C0         536.2355  -406.5089  -367.0474 C0            1 RES     
   16049 C0         535.7561  -405.7370  -365.8049 C0            1 RES     
   16050 C0         534.3126  -405.2616  -365.8135 C0            1 RES     
   16051 C0         533.9759  -404.0928  -366.7287 C0            1 RES     
   16052 C0         532.5169  -403.6912  -366.4303 C0            1 RES     
   16053 C0         532.0467  -402.4264  -367.1510 C0            1 RES     
   16054 C0         532.7606  -401.1713  -366.6469 C0            1 RES     
   16055 H6         536.8399  -410.0025  -365.5204 H6            1 RES     
   16056 H6         538.5311  -410.1178  -365.2768 H6            1 RES     
   16057 H6         539.1655  -408.5151  -366.6902 H6            1 RES     
   16058 H6         536.4599  -409.4784  -367.8431 H6            1 RES     
   16059 H6         537.9649  -410.4494  -367.6956 H6            1 RES     
   16060 H6         539.1300  -408.9019  -369.2833 H6            1 RES     
   16061 H6         537.6118  -407.9559  -369.4795 H6            1 RES     
   16062 H6         537.8542  -409.4030  -371.3575 H6            1 RES     
   16063 H6         536.3946  -409.8162  -370.4176 H6            1 RES     
   16064 H6         537.5630  -411.8226  -371.2694 H6            1 RES     
   16065 H6         537.4557  -411.8207  -369.4846 H6            1 RES     
   16066 H6         539.8262  -411.1570  -369.2711 H6            1 RES     
   16067 H6         539.6152  -412.6517  -370.2397 H6            1 RES     
   16068 H6         540.1032  -409.8111  -371.3617 H6            1 RES     
   16069 H6         539.9016  -411.2893  -372.3687 H6            1 RES     
   16070 H6         542.2731  -410.5574  -372.0627 H6            1 RES     
   16071 H6         542.1163  -410.7532  -370.2793 H6            1 RES     
   16072 H6         541.7185  -413.2490  -370.6349 H6            1 RES     
   16073 H6         541.7775  -412.9715  -372.4135 H6            1 RES     
   16074 H6         544.1572  -412.2363  -372.2370 H6            1 RES     
   16075 H6         543.8800  -413.9151  -371.6500 H6            1 RES     
   16076 H6         544.2337  -411.4375  -369.8414 H6            1 RES     
   16077 H6         543.8972  -413.1276  -369.2822 H6            1 RES     
   16078 H6         545.4303  -412.7385  -370.1494 H6            1 RES     
   16079 H6         538.1867  -406.7606  -367.8692 H6            1 RES     
   16080 H6         538.2972  -406.3157  -366.2789 H6            1 RES     
   16081 H6         536.2110  -405.7553  -367.8652 H6            1 RES     
   16082 H6         535.5618  -407.3393  -367.3405 H6            1 RES     
   16083 H6         536.4358  -404.8792  -365.5988 H6            1 RES     
   16084 H6         535.7722  -406.3902  -364.9396 H6            1 RES     
   16085 H6         533.6320  -406.1224  -365.9917 H6            1 RES     
   16086 H6         534.1402  -404.8685  -364.7980 H6            1 RES     
   16087 H6         534.6681  -403.2599  -366.4831 H6            1 RES     
   16088 H6         534.1004  -404.3697  -367.7963 H6            1 RES     
   16089 H6         531.8593  -404.5380  -366.7261 H6            1 RES     
   16090 H6         532.3781  -403.5239  -365.3372 H6            1 RES     
   16091 H6         530.9633  -402.3043  -366.9314 H6            1 RES     
   16092 H6         532.1765  -402.5401  -368.2456 H6            1 RES     
   16093 H6         533.8456  -401.2051  -366.8695 H6            1 RES     
   16094 H6         532.3311  -400.2796  -367.1479 H6            1 RES     
   16095 H6         532.6170  -401.0610  -365.5496 H6            1 RES     
   16096 C0         547.3722  -414.8711  -357.8739 C0            1 RES     
   16097 C1         545.8601  -414.6042  -358.0419 C1            1 RES     
   16098 C1         545.0974  -415.5582  -357.4474 C1            1 RES     
   16099 S2         543.4542  -415.3488  -357.6893 S2            1 RES     
   16100 C1         543.7042  -413.9708  -358.6534 C1            1 RES     
   16101 C1         545.0717  -413.6997  -358.7725 C1            1 RES     
   16102 C1         545.9473  -416.5314  -356.8789 C1            1 RES     
   16103 C1         547.2395  -416.2240  -357.1730 C1            1 RES     
   16104 C1         548.1242  -417.2159  -356.7671 C1            1 RES     
   16105 C1         547.4365  -418.2592  -356.1245 C1            1 RES     
   16106 S2         545.7633  -417.9743  -356.0722 S2            1 RES     
   16107 H3         545.4356  -412.9124  -359.4050 H3            1 RES     
   16108 H3         549.1949  -417.1882  -356.9298 H3            1 RES     
   16109 N4         548.5659  -421.0348  -353.8727 N4            1 RES     
   16110 C1         548.0585  -419.8376  -354.2890 C1            1 RES     
   16111 C1         548.0163  -419.5130  -355.6560 C1            1 RES     
   16112 C1         548.4853  -420.4567  -356.5716 C1            1 RES     
   16113 N4         548.4482  -420.2931  -357.9190 N4            1 RES     
   16114 S2         549.0621  -421.7280  -358.4633 S2            1 RES     
   16115 N4         549.3863  -422.5705  -357.0765 N4            1 RES     
   16116 C1         548.9892  -421.7005  -356.1152 C1            1 RES     
   16117 C1         549.0350  -421.9667  -354.7493 C1            1 RES     
   16118 H5         547.6933  -419.1286  -353.5511 H5            1 RES     
   16119 C0         548.2301  -413.9227  -356.9644 C0            1 RES     
   16120 C0         548.2582  -413.7643  -355.3972 C0            1 RES     
   16121 C0         549.2318  -412.5642  -355.1250 C0            1 RES     
   16122 C0         549.5145  -412.2211  -353.6572 C0            1 RES     
   16123 C0         550.4436  -410.9931  -353.5102 C0            1 RES     
   16124 C0         551.8629  -411.1489  -354.0994 C0            1 RES     
   16125 C0         552.6526  -412.3611  -353.5750 C0            1 RES     
   16126 C0         552.8115  -412.3610  -352.0442 C0            1 RES     
   16127 C0         553.5510  -413.5997  -351.5187 C0            1 RES     
   16128 C0         555.0279  -413.6496  -351.9453 C0            1 RES     
   16129 C0         555.7866  -414.8312  -351.3203 C0            1 RES     
   16130 C0         555.2867  -416.1924  -351.8055 C0            1 RES     
   16131 C0         546.9143  -413.6199  -354.6109 C0            1 RES     
   16132 C0         546.0228  -412.3626  -354.8494 C0            1 RES     
   16133 C0         544.6473  -412.8171  -355.3470 C0            1 RES     
   16134 C0         543.7218  -411.7666  -355.9543 C0            1 RES     
   16135 C0         542.9591  -410.8880  -354.9736 C0            1 RES     
   16136 C0         542.0577  -409.9414  -355.7936 C0            1 RES     
   16137 C0         541.0790  -409.1186  -354.9526 C0            1 RES     
   16138 C0         539.9949  -409.9860  -354.3093 C0            1 RES     
   16139 H6         548.0610  -412.9380  -357.3187 H6            1 RES     
   16140 H6         549.2831  -414.1883  -357.2101 H6            1 RES     
   16141 H6         548.7208  -414.6922  -354.9927 H6            1 RES     
   16142 H6         548.8248  -411.6464  -355.6032 H6            1 RES     
   16143 H6         550.2009  -412.7965  -355.6163 H6            1 RES     
   16144 H6         549.9434  -413.1010  -353.1359 H6            1 RES     
   16145 H6         548.5636  -411.9487  -353.1564 H6            1 RES     
   16146 H6         550.5284  -410.7521  -352.4304 H6            1 RES     
   16147 H6         549.9658  -410.1117  -353.9926 H6            1 RES     
   16148 H6         552.4335  -410.2205  -353.8739 H6            1 RES     
   16149 H6         551.8023  -411.2276  -355.2060 H6            1 RES     
   16150 H6         552.1433  -413.2952  -353.8930 H6            1 RES     
   16151 H6         553.6510  -412.3385  -354.0590 H6            1 RES     
   16152 H6         551.8047  -412.3821  -351.5797 H6            1 RES     
   16153 H6         553.3312  -411.4363  -351.7103 H6            1 RES     
   16154 H6         553.5128  -413.5668  -350.4080 H6            1 RES     
   16155 H6         553.0079  -414.5064  -351.8589 H6            1 RES     
   16156 H6         555.1211  -413.7089  -353.0495 H6            1 RES     
   16157 H6         555.5184  -412.7129  -351.6015 H6            1 RES     
   16158 H6         555.7156  -414.7809  -350.2118 H6            1 RES     
   16159 H6         556.8580  -414.7413  -351.6019 H6            1 RES     
   16160 H6         554.2331  -416.3661  -351.5075 H6            1 RES     
   16161 H6         555.3733  -416.2604  -352.9107 H6            1 RES     
   16162 H6         555.9054  -416.9943  -351.3508 H6            1 RES     
   16163 H6         547.1562  -413.6389  -353.5267 H6            1 RES     
   16164 H6         546.3325  -414.5572  -354.7428 H6            1 RES     
   16165 H6         545.8795  -411.7946  -353.9028 H6            1 RES     
   16166 H6         546.5037  -411.6887  -355.5872 H6            1 RES     
   16167 H6         544.1162  -413.4461  -354.6019 H6            1 RES     
   16168 H6         544.8832  -413.4409  -356.1828 H6            1 RES     
   16169 H6         544.2874  -411.1611  -356.6668 H6            1 RES     
   16170 H6         542.9537  -412.3251  -356.5363 H6            1 RES     
   16171 H6         542.3488  -411.5618  -354.3355 H6            1 RES     
   16172 H6         543.6498  -410.3020  -354.3312 H6            1 RES     
   16173 H6         542.7166  -409.2457  -356.3611 H6            1 RES     
   16174 H6         541.4607  -410.5183  -356.5362 H6            1 RES     
   16175 H6         540.5690  -408.4016  -355.6331 H6            1 RES     
   16176 H6         541.6271  -408.5402  -354.1794 H6            1 RES     
   16177 H6         540.4259  -410.7035  -353.5836 H6            1 RES     
   16178 H6         539.2739  -409.3385  -353.7703 H6            1 RES     
   16179 H6         539.4415  -410.5502  -355.0930 H6            1 RES     
   16180 C0         547.9402  -414.9610  -359.3453 C0            1 RES     
   16181 C0         548.9352  -413.9140  -360.0236 C0            1 RES     
   16182 C0         548.7772  -414.0927  -361.5714 C0            1 RES     
   16183 C0         549.8323  -413.3739  -362.4363 C0            1 RES     
   16184 C0         549.6248  -413.5570  -363.9501 C0            1 RES     
   16185 C0         549.6677  -415.0086  -364.4600 C0            1 RES     
   16186 C0         550.9279  -415.8003  -364.0731 C0            1 RES     
   16187 C0         552.2348  -415.1413  -364.5482 C0            1 RES     
   16188 C0         553.4850  -415.9421  -364.1493 C0            1 RES     
   16189 C0         553.5762  -417.3038  -364.8610 C0            1 RES     
   16190 C0         554.8847  -418.0515  -364.5609 C0            1 RES     
   16191 C0         555.0182  -418.4701  -363.0966 C0            1 RES     
   16192 C0         549.0583  -412.3812  -359.6335 C0            1 RES     
   16193 C0         547.9144  -411.3659  -359.9138 C0            1 RES     
   16194 C0         547.1699  -410.9531  -358.6314 C0            1 RES     
   16195 C0         545.9899  -410.0106  -358.8023 C0            1 RES     
   16196 C0         546.3074  -408.5611  -359.1419 C0            1 RES     
   16197 C0         544.9768  -407.7828  -359.0886 C0            1 RES     
   16198 C0         545.1201  -406.2688  -359.2541 C0            1 RES     
   16199 C0         545.8377  -405.6204  -358.0693 C0            1 RES     
   16200 H6         547.0808  -415.1332  -360.0342 H6            1 RES     
   16201 H6         548.4693  -415.9367  -359.4352 H6            1 RES     
   16202 H6         549.9454  -414.2959  -359.7484 H6            1 RES     
   16203 H6         547.7690  -413.7382  -361.8766 H6            1 RES     
   16204 H6         548.8395  -415.1793  -361.7954 H6            1 RES     
   16205 H6         550.8455  -413.7204  -362.1428 H6            1 RES     
   16206 H6         549.7767  -412.2791  -362.2804 H6            1 RES     
   16207 H6         550.4093  -412.9687  -364.4722 H6            1 RES     
   16208 H6         548.6460  -413.1159  -364.2410 H6            1 RES     
   16209 H6         549.5788  -414.9826  -365.5682 H6            1 RES     
   16210 H6         548.7831  -415.5588  -364.0742 H6            1 RES     
   16211 H6         550.9626  -415.9277  -362.9700 H6            1 RES     
   16212 H6         550.8231  -416.8067  -364.5272 H6            1 RES     
   16213 H6         552.3283  -414.1438  -364.0704 H6            1 RES     
   16214 H6         552.2160  -414.9986  -365.6504 H6            1 RES     
   16215 H6         554.3751  -415.3410  -364.4362 H6            1 RES     
   16216 H6         553.4921  -416.0693  -363.0459 H6            1 RES     
   16217 H6         552.7235  -417.9567  -364.5825 H6            1 RES     
   16218 H6         553.5355  -417.1235  -365.9575 H6            1 RES     
   16219 H6         555.7536  -417.4213  -364.8500 H6            1 RES     
   16220 H6         554.9038  -418.9729  -365.1820 H6            1 RES     
   16221 H6         555.0589  -417.5877  -362.4267 H6            1 RES     
   16222 H6         554.1646  -419.1176  -362.8030 H6            1 RES     
   16223 H6         555.9597  -419.0434  -362.9639 H6            1 RES     
   16224 H6         549.9229  -412.0140  -360.2163 H6            1 RES     
   16225 H6         549.4961  -412.2200  -358.6305 H6            1 RES     
   16226 H6         548.3803  -410.4232  -360.2764 H6            1 RES     
   16227 H6         547.2439  -411.7350  -360.7161 H6            1 RES     
   16228 H6         547.8858  -410.5323  -357.8893 H6            1 RES     
   16229 H6         546.7000  -411.8224  -358.1852 H6            1 RES     
   16230 H6         545.2615  -410.4432  -359.5222 H6            1 RES     
   16231 H6         545.5246  -409.9589  -357.8041 H6            1 RES     
   16232 H6         547.0135  -408.1801  -358.3741 H6            1 RES     
   16233 H6         546.7761  -408.4768  -360.1445 H6            1 RES     
   16234 H6         544.3182  -408.1712  -359.8964 H6            1 RES     
   16235 H6         544.4610  -407.9654  -358.1177 H6            1 RES     
   16236 H6         544.0938  -405.8423  -359.2959 H6            1 RES     
   16237 H6         545.6402  -406.0361  -360.2044 H6            1 RES     
   16238 H6         546.8861  -405.9701  -357.9896 H6            1 RES     
   16239 H6         545.8484  -404.5196  -358.2056 H6            1 RES     
   16240 H6         545.3033  -405.8519  -357.1218 H6            1 RES     
   16241 C0         552.4042  -425.8413  -352.9564 C0            1 RES     
   16242 C1         551.1793  -424.9988  -353.3755 C1            1 RES     
   16243 C1         550.0538  -425.7490  -353.5005 C1            1 RES     
   16244 S2         548.7282  -424.8825  -354.0430 S2            1 RES     
   16245 C1         549.6350  -423.4503  -354.1757 C1            1 RES     
   16246 C1         550.9625  -423.6759  -353.7958 C1            1 RES     
   16247 C1         550.3739  -427.0976  -353.2332 C1            1 RES     
   16248 C1         551.7110  -427.2038  -353.0058 C1            1 RES     
   16249 C1         552.1217  -428.5251  -352.8765 C1            1 RES     
   16250 C1         551.0245  -429.3966  -352.9813 C1            1 RES     
   16251 S2         549.5734  -428.5556  -353.2467 S2            1 RES     
   16252 H3         551.7101  -422.9105  -353.8833 H3            1 RES     
   16253 H3         553.1476  -428.8372  -352.7217 H3            1 RES     
   16254 N4         550.5343  -432.9867  -352.0214 N4            1 RES     
   16255 C1         550.5099  -431.6226  -351.9677 C1            1 RES     
   16256 C1         551.0805  -430.8541  -352.9970 C1            1 RES     
   16257 C1         551.6494  -431.5245  -354.0813 C1            1 RES     
   16258 N4         552.1812  -430.9038  -355.1655 N4            1 RES     
   16259 S2         552.6249  -432.1800  -356.1175 S2            1 RES     
   16260 N4         552.1834  -433.5061  -355.2316 N4            1 RES     
   16261 C1         551.6445  -432.9414  -354.1228 C1            1 RES     
   16262 C1         551.0905  -433.6605  -353.0670 C1            1 RES     
   16263 H5         550.0514  -431.1315  -351.1138 H5            1 RES     
   16264 C0         553.0233  -425.6508  -351.5270 C0            1 RES     
   16265 C0         552.4685  -426.0662  -350.1122 C0            1 RES     
   16266 C0         553.4968  -425.4803  -349.0818 C0            1 RES     
   16267 C0         553.2492  -425.7950  -347.6013 C0            1 RES     
   16268 C0         554.2930  -425.1253  -346.6767 C0            1 RES     
   16269 C0         555.7567  -425.5762  -346.8771 C0            1 RES     
   16270 C0         555.9874  -427.0940  -346.7713 C0            1 RES     
   16271 C0         555.5287  -427.6814  -345.4248 C0            1 RES     
   16272 C0         555.7082  -429.2041  -345.3433 C0            1 RES     
   16273 C0         557.1830  -429.6408  -345.3420 C0            1 RES     
   16274 C0         557.3533  -431.1555  -345.1448 C0            1 RES     
   16275 C0         556.7958  -431.9806  -346.3053 C0            1 RES     
   16276 C0         550.9923  -425.7210  -349.7292 C0            1 RES     
   16277 C0         550.5685  -424.2257  -349.5975 C0            1 RES     
   16278 C0         549.4352  -423.9424  -350.5881 C0            1 RES     
   16279 C0         549.0800  -422.4859  -350.8734 C0            1 RES     
   16280 C0         548.2090  -421.7867  -349.8400 C0            1 RES     
   16281 C0         547.9357  -420.3551  -350.3472 C0            1 RES     
   16282 C0         546.9143  -419.5765  -349.5149 C0            1 RES     
   16283 C0         545.5020  -420.1511  -349.6434 C0            1 RES     
   16284 H6         553.2295  -424.6158  -351.4278 H6            1 RES     
   16285 H6         554.0009  -426.1811  -351.5803 H6            1 RES     
   16286 H6         552.5172  -427.1771  -350.0658 H6            1 RES     
   16287 H6         553.5244  -424.3730  -349.1809 H6            1 RES     
   16288 H6         554.5032  -425.8662  -349.3513 H6            1 RES     
   16289 H6         553.2326  -426.8925  -347.4425 H6            1 RES     
   16290 H6         552.2642  -425.3845  -347.3006 H6            1 RES     
   16291 H6         553.9985  -425.3216  -345.6251 H6            1 RES     
   16292 H6         554.2511  -424.0221  -346.8145 H6            1 RES     
   16293 H6         556.3834  -425.0612  -346.1151 H6            1 RES     
   16294 H6         556.1194  -425.2395  -347.8717 H6            1 RES     
   16295 H6         555.4506  -427.6044  -347.5986 H6            1 RES     
   16296 H6         557.0737  -427.2729  -346.9117 H6            1 RES     
   16297 H6         554.4429  -427.4914  -345.3026 H6            1 RES     
   16298 H6         556.0665  -427.1884  -344.5855 H6            1 RES     
   16299 H6         555.2455  -429.5457  -344.3918 H6            1 RES     
   16300 H6         555.1560  -429.6707  -346.1859 H6            1 RES     
   16301 H6         557.6863  -429.3443  -346.2855 H6            1 RES     
   16302 H6         557.6935  -429.1302  -344.4966 H6            1 RES     
   16303 H6         556.8660  -431.4694  -344.1959 H6            1 RES     
   16304 H6         558.4401  -431.3731  -345.0631 H6            1 RES     
   16305 H6         555.6998  -431.8476  -346.4064 H6            1 RES     
   16306 H6         557.2917  -431.6888  -347.2555 H6            1 RES     
   16307 H6         556.9920  -433.0571  -346.1183 H6            1 RES     
   16308 H6         550.7786  -426.2009  -348.7502 H6            1 RES     
   16309 H6         550.3169  -426.2719  -350.4183 H6            1 RES     
   16310 H6         550.1950  -424.0099  -348.5714 H6            1 RES     
   16311 H6         551.4367  -423.5647  -349.7953 H6            1 RES     
   16312 H6         548.5293  -424.5488  -350.3769 H6            1 RES     
   16313 H6         549.8355  -424.2788  -351.5208 H6            1 RES     
   16314 H6         549.9986  -421.9237  -351.0583 H6            1 RES     
   16315 H6         548.4989  -422.4857  -351.8236 H6            1 RES     
   16316 H6         547.2645  -422.3656  -349.7611 H6            1 RES     
   16317 H6         548.7033  -421.7555  -348.8461 H6            1 RES     
   16318 H6         548.9007  -419.7993  -350.3432 H6            1 RES     
   16319 H6         547.5663  -420.3780  -351.3977 H6            1 RES     
   16320 H6         546.8849  -418.5351  -349.9043 H6            1 RES     
   16321 H6         547.2284  -419.5450  -348.4504 H6            1 RES     
   16322 H6         545.4430  -421.1798  -349.2364 H6            1 RES     
   16323 H6         544.7903  -419.5140  -349.0802 H6            1 RES     
   16324 H6         545.1904  -420.1648  -350.7118 H6            1 RES     
   16325 C0         553.4687  -425.6184  -354.1021 C0            1 RES     
   16326 C0         554.8550  -424.8439  -353.9456 C0            1 RES     
   16327 C0         555.2817  -424.4052  -355.3871 C0            1 RES     
   16328 C0         556.7223  -423.8719  -355.5223 C0            1 RES     
   16329 C0         557.0904  -423.4306  -356.9498 C0            1 RES     
   16330 C0         557.0072  -424.5239  -358.0300 C0            1 RES     
   16331 C0         557.8050  -425.8033  -357.7278 C0            1 RES     
   16332 C0         559.3042  -425.5486  -357.4917 C0            1 RES     
   16333 C0         560.0862  -426.8363  -357.1860 C0            1 RES     
   16334 C0         560.1452  -427.7999  -358.3848 C0            1 RES     
   16335 C0         561.0299  -429.0290  -358.1239 C0            1 RES     
   16336 C0         560.4818  -429.9457  -357.0302 C0            1 RES     
   16337 C0         555.1515  -423.6998  -352.8873 C0            1 RES     
   16338 C0         554.4652  -422.3067  -352.9670 C0            1 RES     
   16339 C0         553.3888  -422.1208  -351.8824 C0            1 RES     
   16340 C0         552.6113  -420.8152  -351.9113 C0            1 RES     
   16341 C0         553.3491  -419.5620  -351.4617 C0            1 RES     
   16342 C0         552.3128  -418.4206  -351.4133 C0            1 RES     
   16343 C0         552.8411  -417.1080  -350.8317 C0            1 RES     
   16344 C0         553.1605  -417.2204  -349.3403 C0            1 RES     
   16345 H6         552.9336  -425.2141  -354.9927 H6            1 RES     
   16346 H6         553.7601  -426.6240  -354.4813 H6            1 RES     
   16347 H6         555.5642  -425.6390  -353.6187 H6            1 RES     
   16348 H6         554.5799  -423.6241  -355.7514 H6            1 RES     
   16349 H6         555.1845  -425.2893  -356.0532 H6            1 RES     
   16350 H6         557.4348  -424.6438  -355.1631 H6            1 RES     
   16351 H6         556.8540  -422.9596  -354.9087 H6            1 RES     
   16352 H6         558.1260  -423.0293  -356.9229 H6            1 RES     
   16353 H6         556.4285  -422.5904  -357.2550 H6            1 RES     
   16354 H6         557.3684  -424.0857  -358.9861 H6            1 RES     
   16355 H6         555.9442  -424.8085  -358.1821 H6            1 RES     
   16356 H6         557.3749  -426.3075  -356.8361 H6            1 RES     
   16357 H6         557.6666  -426.4773  -358.5976 H6            1 RES     
   16358 H6         559.4211  -424.8863  -356.6086 H6            1 RES     
   16359 H6         559.7514  -425.0373  -358.3715 H6            1 RES     
   16360 H6         561.1266  -426.5439  -356.9250 H6            1 RES     
   16361 H6         559.6314  -427.3302  -356.3012 H6            1 RES     
   16362 H6         559.1300  -428.1478  -358.6664 H6            1 RES     
   16363 H6         560.5791  -427.2502  -359.2484 H6            1 RES     
   16364 H6         562.0587  -428.7029  -357.8573 H6            1 RES     
   16365 H6         561.0866  -429.6172  -359.0651 H6            1 RES     
   16366 H6         560.4508  -429.4300  -356.0493 H6            1 RES     
   16367 H6         559.4612  -430.2939  -357.2969 H6            1 RES     
   16368 H6         561.1433  -430.8318  -356.9295 H6            1 RES     
   16369 H6         556.2334  -423.4979  -352.9911 H6            1 RES     
   16370 H6         555.1845  -424.0678  -351.8446 H6            1 RES     
   16371 H6         555.2323  -421.5377  -352.7273 H6            1 RES     
   16372 H6         554.0997  -422.1026  -353.9937 H6            1 RES     
   16373 H6         553.8300  -422.2761  -350.8717 H6            1 RES     
   16374 H6         552.6017  -422.8539  -352.0187 H6            1 RES     
   16375 H6         552.1477  -420.6732  -352.9117 H6            1 RES     
   16376 H6         551.8157  -420.9453  -351.1592 H6            1 RES     
   16377 H6         553.7627  -419.7570  -350.4497 H6            1 RES     
   16378 H6         554.1796  -419.3142  -352.1552 H6            1 RES     
   16379 H6         551.9557  -418.2355  -352.4503 H6            1 RES     
   16380 H6         551.4310  -418.7251  -350.8036 H6            1 RES     
   16381 H6         552.0358  -416.3492  -350.9437 H6            1 RES     
   16382 H6         553.7298  -416.7689  -351.4000 H6            1 RES     
   16383 H6         553.9877  -417.9342  -349.1556 H6            1 RES     
   16384 H6         553.4674  -416.2263  -348.9556 H6            1 RES     
   16385 H6         552.2603  -417.5523  -348.7776 H6            1 RES     
   16386 C0         552.5363  -438.8618  -352.4079 C0            1 RES     
   16387 C1         551.7940  -437.5403  -352.7052 C1            1 RES     
   16388 C1         550.6721  -437.7328  -353.4465 C1            1 RES     
   16389 S2         549.8935  -436.3110  -353.8647 S2            1 RES     
   16390 C1         551.0724  -435.3602  -353.0920 C1            1 RES     
   16391 C1         552.0585  -436.1728  -352.5219 C1            1 RES     
   16392 C1         550.5541  -439.1075  -353.7448 C1            1 RES     
   16393 C1         551.6350  -439.7677  -353.2483 C1            1 RES     
   16394 C1         551.6581  -441.1043  -353.6281 C1            1 RES     
   16395 C1         550.5267  -441.4189  -354.3995 C1            1 RES     
   16396 S2         549.5218  -440.0690  -354.6260 S2            1 RES     
   16397 H3         552.9297  -435.7552  -352.0541 H3            1 RES     
   16398 H3         552.4441  -441.8032  -353.3682 H3            1 RES     
   16399 N4         548.9171  -444.6725  -355.3341 N4            1 RES     
   16400 C1         549.1764  -443.5038  -354.6777 C1            1 RES     
   16401 C1         550.2600  -442.6930  -355.0577 C1            1 RES     
   16402 C1         551.0447  -443.1057  -356.1359 C1            1 RES     
   16403 N4         552.0824  -442.3895  -356.6396 N4            1 RES     
   16404 S2         552.5693  -443.3253  -357.9120 S2            1 RES     
   16405 N4         551.5338  -444.6154  -357.8727 N4            1 RES     
   16406 C1         550.7428  -444.3135  -356.8136 C1            1 RES     
   16407 C1         549.6746  -445.0968  -356.3843 C1            1 RES     
   16408 H5         548.5409  -443.2068  -353.8479 H5            1 RES     
   16409 C0         552.5703  -439.4182  -350.9409 C0            1 RES     
   16410 C0         551.4279  -440.0630  -350.0685 C0            1 RES     
   16411 C0         552.0714  -440.2898  -348.6554 C0            1 RES     
   16412 C0         551.1998  -440.9829  -347.6008 C0            1 RES     
   16413 C0         551.9172  -441.1065  -346.2360 C0            1 RES     
   16414 C0         553.2026  -441.9629  -346.2267 C0            1 RES     
   16415 C0         553.0307  -443.3952  -346.7628 C0            1 RES     
   16416 C0         551.9627  -444.2001  -346.0011 C0            1 RES     
   16417 C0         551.7537  -445.6094  -346.5735 C0            1 RES     
   16418 C0         552.9730  -446.5274  -346.3831 C0            1 RES     
   16419 C0         552.7120  -447.9665  -346.8555 C0            1 RES     
   16420 C0         552.4869  -448.0737  -348.3642 C0            1 RES     
   16421 C0         550.0363  -439.3564  -349.9732 C0            1 RES     
   16422 C0         549.9376  -437.9550  -349.2956 C0            1 RES     
   16423 C0         549.3773  -436.9525  -350.3091 C0            1 RES     
   16424 C0         549.4948  -435.4656  -349.9865 C0            1 RES     
   16425 C0         548.4667  -434.8997  -349.0179 C0            1 RES     
   16426 C0         548.7389  -433.3876  -348.8742 C0            1 RES     
   16427 C0         547.6730  -432.6286  -348.0805 C0            1 RES     
   16428 C0         546.3353  -432.5631  -348.8205 C0            1 RES     
   16429 H6         552.9449  -438.6339  -350.3340 H6            1 RES     
   16430 H6         553.3465  -440.2160  -350.9698 H6            1 RES     
   16431 H6         551.2071  -441.0565  -350.5188 H6            1 RES     
   16432 H6         552.3803  -439.3092  -348.2317 H6            1 RES     
   16433 H6         552.9901  -440.8987  -348.7957 H6            1 RES     
   16434 H6         550.8795  -441.9797  -347.9664 H6            1 RES     
   16435 H6         550.2934  -440.3713  -347.4173 H6            1 RES     
   16436 H6         551.1981  -441.5318  -345.5057 H6            1 RES     
   16437 H6         552.1782  -440.0905  -345.8653 H6            1 RES     
   16438 H6         553.5771  -442.0111  -345.1799 H6            1 RES     
   16439 H6         553.9913  -441.4610  -346.8270 H6            1 RES     
   16440 H6         552.7630  -443.3533  -347.8396 H6            1 RES     
   16441 H6         554.0159  -443.8992  -346.6783 H6            1 RES     
   16442 H6         550.9875  -443.6804  -346.0958 H6            1 RES     
   16443 H6         552.2227  -444.2615  -344.9216 H6            1 RES     
   16444 H6         550.8916  -446.0640  -346.0384 H6            1 RES     
   16445 H6         551.4879  -445.5189  -347.6477 H6            1 RES     
   16446 H6         553.8582  -446.1294  -346.9211 H6            1 RES     
   16447 H6         553.2101  -446.5657  -345.2975 H6            1 RES     
   16448 H6         551.8352  -448.3872  -346.3166 H6            1 RES     
   16449 H6         553.6020  -448.5808  -346.5992 H6            1 RES     
   16450 H6         551.5776  -447.5224  -348.6777 H6            1 RES     
   16451 H6         553.3671  -447.6748  -348.9120 H6            1 RES     
   16452 H6         552.3502  -449.1402  -348.6403 H6            1 RES     
   16453 H6         549.3550  -440.0311  -349.4119 H6            1 RES     
   16454 H6         549.5817  -439.3466  -350.9869 H6            1 RES     
   16455 H6         549.2493  -437.9865  -348.4213 H6            1 RES     
   16456 H6         550.9367  -437.6336  -348.9374 H6            1 RES     
   16457 H6         548.3514  -437.2175  -350.6411 H6            1 RES     
   16458 H6         550.0261  -437.0672  -351.1512 H6            1 RES     
   16459 H6         550.5120  -435.2525  -349.6488 H6            1 RES     
   16460 H6         549.3489  -434.9240  -350.9487 H6            1 RES     
   16461 H6         547.4643  -435.0811  -349.4604 H6            1 RES     
   16462 H6         548.5249  -435.3976  -348.0269 H6            1 RES     
   16463 H6         549.7220  -433.2624  -348.3662 H6            1 RES     
   16464 H6         548.8163  -432.9088  -349.8769 H6            1 RES     
   16465 H6         548.0303  -431.5835  -347.9490 H6            1 RES     
   16466 H6         547.5427  -433.0845  -347.0765 H6            1 RES     
   16467 H6         545.8950  -433.5708  -348.9545 H6            1 RES     
   16468 H6         545.6201  -431.9467  -348.2389 H6            1 RES     
   16469 H6         546.4734  -432.0914  -349.8191 H6            1 RES     
   16470 C0         553.9856  -438.6630  -353.0043 C0            1 RES     
   16471 C0         555.3333  -438.5560  -352.1568 C0            1 RES     
   16472 C0         556.3771  -437.8349  -353.0750 C0            1 RES     
   16473 C0         557.8343  -437.8552  -352.5710 C0            1 RES     
   16474 C0         558.8208  -437.1153  -353.4916 C0            1 RES     
   16475 C0         558.9281  -437.6558  -354.9287 C0            1 RES     
   16476 C0         559.2384  -439.1578  -355.0406 C0            1 RES     
   16477 C0         560.5405  -439.5686  -354.3309 C0            1 RES     
   16478 C0         560.8334  -441.0732  -354.4477 C0            1 RES     
   16479 C0         561.1430  -441.5128  -355.8900 C0            1 RES     
   16480 C0         561.5581  -442.9888  -355.9916 C0            1 RES     
   16481 C0         560.4365  -443.9581  -355.6179 C0            1 RES     
   16482 C0         555.4363  -438.0421  -350.6594 C0            1 RES     
   16483 C0         555.1635  -436.5598  -350.2771 C0            1 RES     
   16484 C0         553.8183  -436.3798  -349.5509 C0            1 RES     
   16485 C0         553.4247  -434.9572  -349.1889 C0            1 RES     
   16486 C0         554.1846  -434.3003  -348.0451 C0            1 RES     
   16487 C0         553.4934  -432.9515  -347.7593 C0            1 RES     
   16488 C0         554.0276  -432.2122  -346.5312 C0            1 RES     
   16489 C0         553.7026  -432.9420  -345.2271 C0            1 RES     
   16490 H6         553.9469  -437.8098  -353.7209 H6            1 RES     
   16491 H6         554.1718  -439.5074  -353.7060 H6            1 RES     
   16492 H6         555.6621  -439.6157  -352.0519 H6            1 RES     
   16493 H6         556.0666  -436.7771  -353.2162 H6            1 RES     
   16494 H6         556.3558  -438.3327  -354.0683 H6            1 RES     
   16495 H6         558.1585  -438.9073  -352.4272 H6            1 RES     
   16496 H6         557.9133  -437.3276  -351.6008 H6            1 RES     
   16497 H6         559.8237  -437.1574  -353.0154 H6            1 RES     
   16498 H6         558.5359  -436.0415  -353.5452 H6            1 RES     
   16499 H6         559.7228  -437.0791  -355.4506 H6            1 RES     
   16500 H6         557.9758  -437.4596  -355.4661 H6            1 RES     
   16501 H6         558.3928  -439.7440  -354.6215 H6            1 RES     
   16502 H6         559.3068  -439.3886  -356.1232 H6            1 RES     
   16503 H6         560.4451  -439.3447  -353.2479 H6            1 RES     
   16504 H6         561.3982  -438.9866  -354.7321 H6            1 RES     
   16505 H6         561.7246  -441.2920  -353.8201 H6            1 RES     
   16506 H6         559.9708  -441.6392  -354.0364 H6            1 RES     
   16507 H6         560.2701  -441.3440  -356.5537 H6            1 RES     
   16508 H6         561.9909  -440.8982  -356.2636 H6            1 RES     
   16509 H6         562.4441  -443.1762  -355.3469 H6            1 RES     
   16510 H6         561.8477  -443.1922  -357.0450 H6            1 RES     
   16511 H6         560.1382  -443.8403  -354.5566 H6            1 RES     
   16512 H6         559.5529  -443.7927  -356.2704 H6            1 RES     
   16513 H6         560.7912  -445.0007  -355.7594 H6            1 RES     
   16514 H6         556.4875  -438.2282  -350.3726 H6            1 RES     
   16515 H6         554.9750  -438.7326  -349.9285 H6            1 RES     
   16516 H6         555.9246  -436.2594  -349.5236 H6            1 RES     
   16517 H6         555.2853  -435.8945  -351.1558 H6            1 RES     
   16518 H6         553.7811  -437.0251  -348.6440 H6            1 RES     
   16519 H6         553.0066  -436.6776  -350.2053 H6            1 RES     
   16520 H6         553.4348  -434.3188  -350.0989 H6            1 RES     
   16521 H6         552.3906  -435.0381  -348.8154 H6            1 RES     
   16522 H6         554.1135  -434.9702  -347.1623 H6            1 RES     
   16523 H6         555.2530  -434.1508  -348.3062 H6            1 RES     
   16524 H6         553.6225  -432.3022  -348.6532 H6            1 RES     
   16525 H6         552.3995  -433.1022  -347.6088 H6            1 RES     
   16526 H6         553.5207  -431.2229  -346.4946 H6            1 RES     
   16527 H6         555.1191  -432.0484  -346.6290 H6            1 RES     
   16528 H6         554.2105  -433.9255  -345.1755 H6            1 RES     
   16529 H6         554.0459  -432.3286  -344.3689 H6            1 RES     
   16530 H6         552.6047  -433.0934  -345.1338 H6            1 RES     
   16531 C0         549.5543  -450.3475  -357.7964 C0            1 RES     
   16532 C1         549.3011  -448.8312  -357.6467 C1            1 RES     
   16533 C1         548.5477  -448.3301  -358.6599 C1            1 RES     
   16534 S2         548.3318  -446.6721  -358.5774 S2            1 RES     
   16535 C1         549.2916  -446.5498  -357.1793 C1            1 RES     
   16536 C1         549.7682  -447.8101  -356.8024 C1            1 RES     
   16537 C1         548.2549  -449.3713  -359.5671 C1            1 RES     
   16538 C1         548.8788  -450.5093  -359.1589 C1            1 RES     
   16539 C1         548.7523  -451.5411  -360.0813 C1            1 RES     
   16540 C1         547.9752  -451.1316  -361.1780 C1            1 RES     
   16541 S2         547.4660  -449.5191  -361.0240 S2            1 RES     
   16542 H3         550.4550  -447.9303  -355.9861 H3            1 RES     
   16543 H3         549.1972  -452.5226  -359.9698 H3            1 RES     
   16544 N4         546.1841  -453.0293  -363.8689 N4            1 RES     
   16545 C1         546.4170  -452.3418  -362.7126 C1            1 RES     
   16546 C1         547.7131  -451.9070  -362.3854 C1            1 RES     
   16547 C1         548.7453  -452.1782  -363.2853 C1            1 RES     
   16548 N4         550.0280  -451.7654  -363.1183 N4            1 RES     
   16549 S2         550.7546  -452.3123  -364.4985 S2            1 RES     
   16550 N4         549.5289  -453.0610  -365.3203 N4            1 RES     
   16551 C1         548.4740  -452.8766  -364.4885 C1            1 RES     
   16552 C1         547.1785  -453.3103  -364.7572 C1            1 RES     
   16553 H5         545.5899  -452.1392  -362.0377 H5            1 RES     
   16554 C0         548.8858  -451.3479  -356.7888 C0            1 RES     
   16555 C0         547.3808  -451.7880  -356.6366 C0            1 RES     
   16556 C0         547.3505  -452.7082  -355.3660 C0            1 RES     
   16557 C0         546.0050  -453.3523  -355.0094 C0            1 RES     
   16558 C0         546.0825  -454.1937  -353.7137 C0            1 RES     
   16559 C0         547.0367  -455.4077  -353.7561 C0            1 RES     
   16560 C0         546.7763  -456.3966  -354.9060 C0            1 RES     
   16561 C0         545.3457  -456.9640  -354.9012 C0            1 RES     
   16562 C0         545.0714  -457.9070  -356.0815 C0            1 RES     
   16563 C0         545.8818  -459.2125  -356.0146 C0            1 RES     
   16564 C0         545.5154  -460.1967  -357.1369 C0            1 RES     
   16565 C0         545.8827  -459.6852  -358.5303 C0            1 RES     
   16566 C0         546.2576  -450.7007  -356.6008 C0            1 RES     
   16567 C0         546.2141  -449.6882  -355.4152 C0            1 RES     
   16568 C0         546.3337  -448.2665  -355.9725 C0            1 RES     
   16569 C0         546.6414  -447.1367  -354.9939 C0            1 RES     
   16570 C0         545.4689  -446.6061  -354.1821 C0            1 RES     
   16571 C0         545.9906  -445.4492  -353.3040 C0            1 RES     
   16572 C0         544.8958  -444.6775  -352.5638 C0            1 RES     
   16573 C0         544.0065  -443.8750  -353.5159 C0            1 RES     
   16574 H6         549.1558  -451.0174  -355.8184 H6            1 RES     
   16575 H6         549.4133  -452.3114  -356.9708 H6            1 RES     
   16576 H6         547.1402  -452.4096  -357.5278 H6            1 RES     
   16577 H6         547.6773  -452.1208  -354.4802 H6            1 RES     
   16578 H6         548.0908  -453.5223  -355.5200 H6            1 RES     
   16579 H6         545.6417  -453.9696  -355.8559 H6            1 RES     
   16580 H6         545.2593  -452.5553  -354.8140 H6            1 RES     
   16581 H6         545.0598  -454.5502  -353.4723 H6            1 RES     
   16582 H6         546.3952  -453.5399  -352.8697 H6            1 RES     
   16583 H6         546.9496  -455.9485  -352.7873 H6            1 RES     
   16584 H6         548.0875  -455.0555  -353.8337 H6            1 RES     
   16585 H6         546.9691  -455.8901  -355.8752 H6            1 RES     
   16586 H6         547.5110  -457.2221  -354.8036 H6            1 RES     
   16587 H6         544.6274  -456.1251  -355.0027 H6            1 RES     
   16588 H6         545.1406  -457.4856  -353.9407 H6            1 RES     
   16589 H6         543.9911  -458.1689  -356.0572 H6            1 RES     
   16590 H6         545.2757  -457.3600  -357.0258 H6            1 RES     
   16591 H6         546.9713  -459.0071  -356.0609 H6            1 RES     
   16592 H6         545.6590  -459.7078  -355.0444 H6            1 RES     
   16593 H6         544.4279  -460.4253  -357.0978 H6            1 RES     
   16594 H6         546.0732  -461.1421  -356.9628 H6            1 RES     
   16595 H6         545.3160  -458.7674  -358.7867 H6            1 RES     
   16596 H6         546.9717  -459.4737  -358.5859 H6            1 RES     
   16597 H6         545.6326  -460.4610  -359.2840 H6            1 RES     
   16598 H6         545.2797  -451.2280  -356.6064 H6            1 RES     
   16599 H6         546.2517  -450.1751  -357.5797 H6            1 RES     
   16600 H6         545.2497  -449.7656  -354.8648 H6            1 RES     
   16601 H6         547.0367  -449.9005  -354.7023 H6            1 RES     
   16602 H6         545.4894  -448.0048  -356.6445 H6            1 RES     
   16603 H6         547.2179  -448.3122  -356.5719 H6            1 RES     
   16604 H6         547.4642  -447.4420  -354.3428 H6            1 RES     
   16605 H6         547.0088  -446.2826  -355.6073 H6            1 RES     
   16606 H6         544.7075  -446.2425  -354.9043 H6            1 RES     
   16607 H6         545.0218  -447.4001  -353.5474 H6            1 RES     
   16608 H6         546.6966  -445.8769  -352.5565 H6            1 RES     
   16609 H6         546.5592  -444.7173  -353.9218 H6            1 RES     
   16610 H6         545.3946  -443.9511  -351.8852 H6            1 RES     
   16611 H6         544.2845  -445.3707  -351.9485 H6            1 RES     
   16612 H6         543.4427  -444.5378  -354.2015 H6            1 RES     
   16613 H6         543.2764  -443.2815  -352.9289 H6            1 RES     
   16614 H6         544.6260  -443.1728  -354.1174 H6            1 RES     
   16615 C0         551.1262  -450.5005  -357.8345 C0            1 RES     
   16616 C0         552.0205  -451.1949  -356.7102 C0            1 RES     
   16617 C0         553.4723  -450.6369  -356.8928 C0            1 RES     
   16618 C0         554.5710  -451.3626  -356.0901 C0            1 RES     
   16619 C0         555.9768  -450.7665  -356.2812 C0            1 RES     
   16620 C0         556.5167  -450.7758  -357.7225 C0            1 RES     
   16621 C0         556.5048  -452.1482  -358.4160 C0            1 RES     
   16622 C0         557.2978  -453.2256  -357.6553 C0            1 RES     
   16623 C0         557.2717  -454.5922  -358.3587 C0            1 RES     
   16624 C0         558.0166  -454.5867  -359.7057 C0            1 RES     
   16625 C0         558.1000  -455.9787  -360.3511 C0            1 RES     
   16626 C0         556.7374  -456.5344  -360.7654 C0            1 RES     
   16627 C0         551.6387  -451.3064  -355.1744 C0            1 RES     
   16628 C0         551.5736  -450.0581  -354.2495 C0            1 RES     
   16629 C0         550.1276  -449.6609  -353.9021 C0            1 RES     
   16630 C0         549.9494  -448.4130  -353.0531 C0            1 RES     
   16631 C0         550.3246  -448.5194  -351.5817 C0            1 RES     
   16632 C0         549.8942  -447.1998  -350.9092 C0            1 RES     
   16633 C0         550.0530  -447.1815  -349.3878 C0            1 RES     
   16634 C0         549.0894  -448.1438  -348.6916 C0            1 RES     
   16635 H6         551.5619  -449.5015  -358.0694 H6            1 RES     
   16636 H6         551.3806  -451.0555  -358.7658 H6            1 RES     
   16637 H6         552.0380  -452.2670  -357.0139 H6            1 RES     
   16638 H6         553.4849  -449.5605  -356.6161 H6            1 RES     
   16639 H6         553.7328  -450.7157  -357.9702 H6            1 RES     
   16640 H6         554.5709  -452.4398  -356.3584 H6            1 RES     
   16641 H6         554.3777  -451.2712  -355.0037 H6            1 RES     
   16642 H6         556.6759  -451.3349  -355.6312 H6            1 RES     
   16643 H6         555.9814  -449.7160  -355.9158 H6            1 RES     
   16644 H6         557.5588  -450.3883  -357.6979 H6            1 RES     
   16645 H6         555.9209  -450.0717  -358.3416 H6            1 RES     
   16646 H6         555.4557  -452.4898  -358.5459 H6            1 RES     
   16647 H6         556.9396  -451.9984  -359.4252 H6            1 RES     
   16648 H6         556.8373  -453.3717  -356.6559 H6            1 RES     
   16649 H6         558.3499  -452.8983  -357.5089 H6            1 RES     
   16650 H6         557.7726  -455.3248  -357.6890 H6            1 RES     
   16651 H6         556.2149  -454.9074  -358.4905 H6            1 RES     
   16652 H6         557.5353  -453.8916  -360.4241 H6            1 RES     
   16653 H6         559.0564  -454.2373  -359.5236 H6            1 RES     
   16654 H6         558.5966  -456.6881  -359.6540 H6            1 RES     
   16655 H6         558.7268  -455.8963  -361.2652 H6            1 RES     
   16656 H6         556.0808  -456.6903  -359.8859 H6            1 RES     
   16657 H6         556.2413  -455.8421  -361.4786 H6            1 RES     
   16658 H6         556.8786  -457.5160  -361.2647 H6            1 RES     
   16659 H6         552.4235  -451.9515  -354.7384 H6            1 RES     
   16660 H6         550.7872  -451.9867  -354.9848 H6            1 RES     
   16661 H6         552.0240  -450.3380  -353.2717 H6            1 RES     
   16662 H6         552.1745  -449.2243  -354.6655 H6            1 RES     
   16663 H6         549.5956  -450.5183  -353.4308 H6            1 RES     
   16664 H6         549.5938  -449.3946  -354.8074 H6            1 RES     
   16665 H6         550.4570  -447.5505  -353.5373 H6            1 RES     
   16666 H6         548.8618  -448.2332  -353.0427 H6            1 RES     
   16667 H6         549.7662  -449.3773  -351.1509 H6            1 RES     
   16668 H6         551.4139  -448.6914  -351.4563 H6            1 RES     
   16669 H6         550.5040  -446.3772  -351.3434 H6            1 RES     
   16670 H6         548.8252  -446.9813  -351.1360 H6            1 RES     
   16671 H6         549.8053  -446.1539  -349.0420 H6            1 RES     
   16672 H6         551.1021  -447.4061  -349.1107 H6            1 RES     
   16673 H6         549.3047  -449.1973  -348.9594 H6            1 RES     
   16674 H6         549.1951  -448.0365  -347.5926 H6            1 RES     
   16675 H6         548.0392  -447.9047  -348.9687 H6            1 RES     
   16676 C0         546.4618  -457.3138  -368.3678 C0            1 RES     
   16677 C1         546.5130  -455.9629  -367.6207 C1            1 RES     
   16678 C1         546.3490  -454.9038  -368.4553 C1            1 RES     
   16679 S2         546.4912  -453.4209  -367.6915 S2            1 RES     
   16680 C1         546.8266  -454.1503  -366.1927 C1            1 RES     
   16681 C1         546.8249  -455.5440  -366.3166 C1            1 RES     
   16682 C1         546.2129  -455.3822  -369.7764 C1            1 RES     
   16683 C1         546.3576  -456.7350  -369.7797 C1            1 RES     
   16684 C1         546.3780  -457.2610  -371.0658 C1            1 RES     
   16685 C1         546.2053  -456.2435  -372.0192 C1            1 RES     
   16686 S2         546.0475  -454.7171  -371.2920 S2            1 RES     
   16687 H3         547.0911  -456.1816  -365.4951 H3            1 RES     
   16688 H3         546.5139  -458.3105  -371.2982 H3            1 RES     
   16689 N4         545.2417  -456.2962  -375.6412 N4            1 RES     
   16690 C1         545.1483  -456.1874  -374.2835 C1            1 RES     
   16691 C1         546.2732  -456.3997  -373.4679 C1            1 RES     
   16692 C1         547.4877  -456.7010  -374.0868 C1            1 RES     
   16693 N4         548.6587  -456.8721  -373.4212 N4            1 RES     
   16694 S2         549.7278  -457.1335  -374.6544 S2            1 RES     
   16695 N4         548.7902  -457.0471  -376.0152 N4            1 RES     
   16696 C1         547.5629  -456.7890  -375.4995 C1            1 RES     
   16697 C1         546.4157  -456.5961  -376.2646 C1            1 RES     
   16698 H5         544.1899  -455.9427  -373.8336 H5            1 RES     
   16699 C0         545.2481  -458.2814  -368.1371 C0            1 RES     
   16700 C0         543.7473  -458.1629  -368.6013 C0            1 RES     
   16701 C0         543.0178  -459.3861  -367.9425 C0            1 RES     
   16702 C0         541.5340  -459.5728  -368.2829 C0            1 RES     
   16703 C0         540.9084  -460.7761  -367.5390 C0            1 RES     
   16704 C0         541.5078  -462.1597  -367.8740 C0            1 RES     
   16705 C0         541.5075  -462.5210  -369.3698 C0            1 RES     
   16706 C0         540.1028  -462.4887  -369.9977 C0            1 RES     
   16707 C0         540.1121  -462.7946  -371.5023 C0            1 RES     
   16708 C0         540.5201  -464.2424  -371.8233 C0            1 RES     
   16709 C0         540.4153  -464.5704  -373.3213 C0            1 RES     
   16710 C0         541.4032  -463.7813  -374.1812 C0            1 RES     
   16711 C0         542.9714  -456.8245  -368.3735 C0            1 RES     
   16712 C0         542.6917  -456.3439  -366.9163 C0            1 RES     
   16713 C0         543.3321  -454.9669  -366.7167 C0            1 RES     
   16714 C0         543.4732  -454.4419  -365.2908 C0            1 RES     
   16715 C0         542.2255  -453.8347  -364.6663 C0            1 RES     
   16716 C0         542.6029  -453.3301  -363.2577 C0            1 RES     
   16717 C0         541.5061  -452.5183  -362.5649 C0            1 RES     
   16718 C0         541.2636  -451.1700  -363.2466 C0            1 RES     
   16719 H6         545.1815  -458.4304  -367.0896 H6            1 RES     
   16720 H6         545.5769  -459.2441  -368.5897 H6            1 RES     
   16721 H6         543.7444  -458.3036  -369.7053 H6            1 RES     
   16722 H6         543.0920  -459.3046  -366.8360 H6            1 RES     
   16723 H6         543.5588  -460.3073  -368.2479 H6            1 RES     
   16724 H6         541.4050  -459.6803  -369.3791 H6            1 RES     
   16725 H6         540.9682  -458.6787  -367.9515 H6            1 RES     
   16726 H6         539.8217  -460.7928  -367.7628 H6            1 RES     
   16727 H6         541.0012  -460.6176  -366.4417 H6            1 RES     
   16728 H6         540.9302  -462.9299  -367.3157 H6            1 RES     
   16729 H6         542.5544  -462.2136  -367.5051 H6            1 RES     
   16730 H6         542.1721  -461.8189  -369.9162 H6            1 RES     
   16731 H6         541.9403  -463.5386  -369.4633 H6            1 RES     
   16732 H6         539.6872  -461.4657  -369.8931 H6            1 RES     
   16733 H6         539.4273  -463.1962  -369.4688 H6            1 RES     
   16734 H6         539.0801  -462.6335  -371.8835 H6            1 RES     
   16735 H6         540.7862  -462.0705  -372.0061 H6            1 RES     
   16736 H6         541.5564  -464.4481  -371.4840 H6            1 RES     
   16737 H6         539.8308  -464.9242  -371.2789 H6            1 RES     
   16738 H6         539.3785  -464.3829  -373.6767 H6            1 RES     
   16739 H6         540.6355  -465.6516  -373.4543 H6            1 RES     
   16740 H6         541.2013  -462.6922  -374.1332 H6            1 RES     
   16741 H6         542.4441  -463.9784  -373.8472 H6            1 RES     
   16742 H6         541.3039  -464.0992  -375.2402 H6            1 RES     
   16743 H6         541.9838  -456.9199  -368.8734 H6            1 RES     
   16744 H6         543.4667  -456.0299  -368.9716 H6            1 RES     
   16745 H6         541.5976  -456.2477  -366.7352 H6            1 RES     
   16746 H6         543.0993  -457.0751  -366.1890 H6            1 RES     
   16747 H6         542.9001  -454.1991  -367.3926 H6            1 RES     
   16748 H6         544.3466  -455.1230  -367.0163 H6            1 RES     
   16749 H6         543.8846  -455.2323  -364.6581 H6            1 RES     
   16750 H6         544.2310  -453.6267  -365.3309 H6            1 RES     
   16751 H6         541.9096  -452.9920  -365.3172 H6            1 RES     
   16752 H6         541.4014  -454.5763  -364.6019 H6            1 RES     
   16753 H6         542.8452  -454.2167  -362.6288 H6            1 RES     
   16754 H6         543.5151  -452.6926  -363.3040 H6            1 RES     
   16755 H6         541.8461  -452.3082  -361.5269 H6            1 RES     
   16756 H6         540.5654  -453.1059  -362.5144 H6            1 RES     
   16757 H6         540.8825  -451.2991  -364.2788 H6            1 RES     
   16758 H6         540.5130  -450.5929  -362.6694 H6            1 RES     
   16759 H6         542.2083  -450.5825  -363.2791 H6            1 RES     
   16760 C0         547.8461  -458.0087  -368.0573 C0            1 RES     
   16761 C0         548.0495  -459.3249  -367.1784 C0            1 RES     
   16762 C0         549.5409  -459.3116  -366.7008 C0            1 RES     
   16763 C0         550.0459  -460.6185  -366.0566 C0            1 RES     
   16764 C0         551.5080  -460.5526  -365.5810 C0            1 RES     
   16765 C0         552.5535  -460.2601  -366.6721 C0            1 RES     
   16766 C0         552.5109  -461.2015  -367.8872 C0            1 RES     
   16767 C0         552.6816  -462.6857  -367.5182 C0            1 RES     
   16768 C0         552.6316  -463.6135  -368.7429 C0            1 RES     
   16769 C0         553.8263  -463.4160  -369.6931 C0            1 RES     
   16770 C0         553.8456  -464.4258  -370.8511 C0            1 RES     
   16771 C0         552.6686  -464.2634  -371.8131 C0            1 RES     
   16772 C0         547.0813  -459.8124  -366.0201 C0            1 RES     
   16773 C0         546.9369  -459.0300  -364.6840 C0            1 RES     
   16774 C0         545.5977  -458.2772  -364.5875 C0            1 RES     
   16775 C0         545.3820  -457.4275  -363.3461 C0            1 RES     
   16776 C0         545.1160  -458.1656  -362.0417 C0            1 RES     
   16777 C0         544.7602  -457.1005  -360.9844 C0            1 RES     
   16778 C0         544.3091  -457.6689  -359.6377 C0            1 RES     
   16779 C0         542.9626  -458.3879  -359.7325 C0            1 RES     
   16780 H6         548.5486  -457.2241  -367.6912 H6            1 RES     
   16781 H6         548.3157  -458.2593  -369.0353 H6            1 RES     
   16782 H6         547.9468  -460.1525  -367.9178 H6            1 RES     
   16783 H6         549.6820  -458.4821  -365.9746 H6            1 RES     
   16784 H6         550.1787  -459.1026  -367.5864 H6            1 RES     
   16785 H6         549.9124  -461.4563  -366.7728 H6            1 RES     
   16786 H6         549.4674  -460.8444  -365.1400 H6            1 RES     
   16787 H6         551.7511  -461.5245  -365.1008 H6            1 RES     
   16788 H6         551.6015  -459.7731  -364.7931 H6            1 RES     
   16789 H6         553.5599  -460.3156  -366.2024 H6            1 RES     
   16790 H6         552.4205  -459.2195  -367.0375 H6            1 RES     
   16791 H6         551.5495  -461.0673  -368.4277 H6            1 RES     
   16792 H6         553.3282  -460.8824  -368.5656 H6            1 RES     
   16793 H6         551.8460  -462.9887  -366.8533 H6            1 RES     
   16794 H6         553.6359  -462.8391  -366.9694 H6            1 RES     
   16795 H6         552.6536  -464.6614  -368.3720 H6            1 RES     
   16796 H6         551.6699  -463.4530  -369.2751 H6            1 RES     
   16797 H6         553.8324  -462.3908  -370.1172 H6            1 RES     
   16798 H6         554.7605  -463.5580  -369.1070 H6            1 RES     
   16799 H6         553.8582  -465.4616  -370.4476 H6            1 RES     
   16800 H6         554.7821  -464.2682  -371.4284 H6            1 RES     
   16801 H6         551.7028  -464.4616  -371.3062 H6            1 RES     
   16802 H6         552.6589  -463.2370  -372.2380 H6            1 RES     
   16803 H6         552.7730  -464.9905  -372.6457 H6            1 RES     
   16804 H6         547.4679  -460.8079  -365.7343 H6            1 RES     
   16805 H6         546.0961  -460.1536  -366.3896 H6            1 RES     
   16806 H6         546.8933  -459.7749  -363.8591 H6            1 RES     
   16807 H6         547.8213  -458.3860  -364.5037 H6            1 RES     
   16808 H6         544.7479  -458.9859  -364.7133 H6            1 RES     
   16809 H6         545.5354  -457.5386  -365.3788 H6            1 RES     
   16810 H6         546.2162  -456.7010  -363.2354 H6            1 RES     
   16811 H6         544.4468  -456.8773  -363.5412 H6            1 RES     
   16812 H6         544.2584  -458.8511  -362.2091 H6            1 RES     
   16813 H6         546.0011  -458.7566  -361.7268 H6            1 RES     
   16814 H6         545.6573  -456.4631  -360.8223 H6            1 RES     
   16815 H6         543.9433  -456.4416  -361.3593 H6            1 RES     
   16816 H6         544.1800  -456.8100  -358.9430 H6            1 RES     
   16817 H6         545.0872  -458.3431  -359.2279 H6            1 RES     
   16818 H6         543.0264  -459.2842  -360.3808 H6            1 RES     
   16819 H6         542.6494  -458.7139  -358.7194 H6            1 RES     
   16820 H6         542.1867  -457.7008  -360.1359 H6            1 RES     
   16821 C0         546.3057  -458.5435  -381.3414 C0            1 RES     
   16822 C1         546.3575  -457.6536  -380.0800 C1            1 RES     
   16823 C1         546.7732  -456.3901  -380.3552 C1            1 RES     
   16824 S2         546.9290  -455.4253  -378.9960 S2            1 RES     
   16825 C1         546.4787  -456.6965  -377.9605 C1            1 RES     
   16826 C1         546.2171  -457.8569  -378.6970 C1            1 RES     
   16827 C1         547.0641  -456.2967  -381.7334 C1            1 RES     
   16828 C1         546.8948  -457.5172  -382.3102 C1            1 RES     
   16829 C1         547.3011  -457.5344  -383.6391 C1            1 RES     
   16830 C1         547.7465  -456.2624  -384.0367 C1            1 RES     
   16831 S2         547.6585  -455.1376  -382.7677 S2            1 RES     
   16832 H3         545.9911  -458.7893  -378.2155 H3            1 RES     
   16833 H3         547.2811  -458.4104  -384.2763 H3            1 RES     
   16834 N4         548.2959  -454.7027  -387.4006 N4            1 RES     
   16835 C1         547.7037  -455.0439  -386.2185 C1            1 RES     
   16836 C1         548.3410  -455.9214  -385.3243 C1            1 RES     
   16837 C1         549.6013  -456.4127  -385.6695 C1            1 RES     
   16838 N4         550.3476  -457.2196  -384.8725 N4            1 RES     
   16839 S2         551.7279  -457.4107  -385.7613 S2            1 RES     
   16840 N4         551.4440  -456.5220  -387.1280 N4            1 RES     
   16841 C1         550.2032  -456.0277  -386.8937 C1            1 RES     
   16842 C1         549.5220  -455.1763  -387.7596 C1            1 RES     
   16843 H5         546.7259  -454.6370  -385.9759 H5            1 RES     
   16844 C0         544.9172  -459.0145  -381.9009 C0            1 RES     
   16845 C0         543.7858  -458.2018  -382.6367 C0            1 RES     
   16846 C0         542.6051  -459.2190  -382.8199 C0            1 RES     
   16847 C0         541.3727  -458.7190  -383.5838 C0            1 RES     
   16848 C0         540.2557  -459.7865  -383.6582 C0            1 RES     
   16849 C0         540.6157  -461.0855  -384.4125 C0            1 RES     
   16850 C0         541.1223  -460.8802  -385.8510 C0            1 RES     
   16851 C0         540.1218  -460.1206  -386.7401 C0            1 RES     
   16852 C0         540.6527  -459.8681  -388.1585 C0            1 RES     
   16853 C0         540.8221  -461.1572  -388.9801 C0            1 RES     
   16854 C0         541.2437  -460.8842  -390.4327 C0            1 RES     
   16855 C0         542.6379  -460.2672  -390.5495 C0            1 RES     
   16856 C0         543.3003  -456.8402  -382.0405 C0            1 RES     
   16857 C0         542.5853  -456.8264  -380.6544 C0            1 RES     
   16858 C0         543.3838  -455.9404  -379.6934 C0            1 RES     
   16859 C0         543.0666  -456.0317  -378.2035 C0            1 RES     
   16860 C0         541.8422  -455.2660  -377.7239 C0            1 RES     
   16861 C0         541.7383  -455.4553  -376.1959 C0            1 RES     
   16862 C0         540.6671  -454.5918  -375.5258 C0            1 RES     
   16863 C0         541.0168  -453.1025  -375.5605 C0            1 RES     
   16864 H6         544.4138  -459.4810  -381.0930 H6            1 RES     
   16865 H6         545.1750  -459.8101  -382.6359 H6            1 RES     
   16866 H6         544.1853  -457.9406  -383.6420 H6            1 RES     
   16867 H6         542.2553  -459.5584  -381.8205 H6            1 RES     
   16868 H6         543.0038  -460.1074  -383.3550 H6            1 RES     
   16869 H6         541.6639  -458.3856  -384.6006 H6            1 RES     
   16870 H6         540.9357  -457.8540  -383.0453 H6            1 RES     
   16871 H6         539.3697  -459.3254  -384.1416 H6            1 RES     
   16872 H6         539.9431  -460.0630  -382.6269 H6            1 RES     
   16873 H6         539.7104  -461.7322  -384.4366 H6            1 RES     
   16874 H6         541.3934  -461.6430  -383.8479 H6            1 RES     
   16875 H6         542.0856  -460.3284  -385.8247 H6            1 RES     
   16876 H6         541.3199  -461.8856  -386.2775 H6            1 RES     
   16877 H6         539.9364  -459.1209  -386.2972 H6            1 RES     
   16878 H6         539.1545  -460.6672  -386.7866 H6            1 RES     
   16879 H6         539.9168  -459.2190  -388.6813 H6            1 RES     
   16880 H6         541.6126  -459.3153  -388.0835 H6            1 RES     
   16881 H6         541.5686  -461.8319  -388.5121 H6            1 RES     
   16882 H6         539.8422  -461.6819  -389.0054 H6            1 RES     
   16883 H6         540.4991  -460.2195  -390.9229 H6            1 RES     
   16884 H6         541.2529  -461.8529  -390.9775 H6            1 RES     
   16885 H6         542.6801  -459.2690  -390.0688 H6            1 RES     
   16886 H6         543.3923  -460.9342  -390.0809 H6            1 RES     
   16887 H6         542.8943  -460.1393  -391.6220 H6            1 RES     
   16888 H6         542.5937  -456.3879  -382.7689 H6            1 RES     
   16889 H6         544.1532  -456.1284  -382.0609 H6            1 RES     
   16890 H6         541.5589  -456.4050  -380.7436 H6            1 RES     
   16891 H6         542.5018  -457.8588  -380.2584 H6            1 RES     
   16892 H6         543.4334  -454.8852  -380.0355 H6            1 RES     
   16893 H6         544.3724  -456.3434  -379.7532 H6            1 RES     
   16894 H6         543.0104  -457.0839  -377.9138 H6            1 RES     
   16895 H6         543.9395  -455.5912  -377.6700 H6            1 RES     
   16896 H6         542.0023  -454.1972  -377.9802 H6            1 RES     
   16897 H6         540.9169  -455.6269  -378.2206 H6            1 RES     
   16898 H6         541.5113  -456.5274  -375.9974 H6            1 RES     
   16899 H6         542.7120  -455.2228  -375.7076 H6            1 RES     
   16900 H6         540.6099  -454.8937  -374.4569 H6            1 RES     
   16901 H6         539.6773  -454.7722  -375.9955 H6            1 RES     
   16902 H6         541.0530  -452.7175  -376.5987 H6            1 RES     
   16903 H6         540.2481  -452.5285  -375.0044 H6            1 RES     
   16904 H6         542.0031  -452.9298  -375.0745 H6            1 RES     
   16905 C0         547.2656  -459.7583  -381.0279 C0            1 RES     
   16906 C0         546.8108  -461.2737  -380.8209 C0            1 RES     
   16907 C0         547.9576  -461.9738  -380.0165 C0            1 RES     
   16908 C0         547.8663  -463.5105  -379.9263 C0            1 RES     
   16909 C0         548.9994  -464.1536  -379.1074 C0            1 RES     
   16910 C0         550.4256  -463.9068  -379.6308 C0            1 RES     
   16911 C0         550.6559  -464.2843  -381.1036 C0            1 RES     
   16912 C0         550.3346  -465.7565  -381.4158 C0            1 RES     
   16913 C0         550.5650  -466.1162  -382.8926 C0            1 RES     
   16914 C0         552.0481  -466.0547  -383.2996 C0            1 RES     
   16915 C0         552.2960  -466.5337  -384.7384 C0            1 RES     
   16916 C0         551.6588  -465.6296  -385.7937 C0            1 RES     
   16917 C0         545.3839  -461.7407  -380.3081 C0            1 RES     
   16918 C0         544.9041  -461.4738  -378.8533 C0            1 RES     
   16919 C0         543.8375  -460.3663  -378.7818 C0            1 RES     
   16920 C0         543.3461  -459.9825  -377.3958 C0            1 RES     
   16921 C0         542.4332  -460.9736  -376.6878 C0            1 RES     
   16922 C0         541.9368  -460.2888  -375.3980 C0            1 RES     
   16923 C0         540.8797  -461.0802  -374.6257 C0            1 RES     
   16924 C0         539.5555  -461.1751  -375.3850 C0            1 RES     
   16925 H6         547.9229  -459.4645  -380.1766 H6            1 RES     
   16926 H6         548.0131  -459.8087  -381.8517 H6            1 RES     
   16927 H6         546.8258  -461.6954  -381.8525 H6            1 RES     
   16928 H6         547.9825  -461.5600  -378.9853 H6            1 RES     
   16929 H6         548.9209  -461.7207  -380.5095 H6            1 RES     
   16930 H6         547.8425  -463.9377  -380.9507 H6            1 RES     
   16931 H6         546.9400  -463.8106  -379.3990 H6            1 RES     
   16932 H6         548.8127  -465.2483  -379.0740 H6            1 RES     
   16933 H6         548.9465  -463.7869  -378.0587 H6            1 RES     
   16934 H6         551.1276  -464.4858  -378.9916 H6            1 RES     
   16935 H6         550.6809  -462.8328  -379.5064 H6            1 RES     
   16936 H6         550.0395  -463.6293  -381.7558 H6            1 RES     
   16937 H6         551.7224  -464.0735  -381.3231 H6            1 RES     
   16938 H6         549.2606  -465.9420  -381.2054 H6            1 RES     
   16939 H6         550.9373  -466.4283  -380.7670 H6            1 RES     
   16940 H6         550.2069  -467.1577  -383.0447 H6            1 RES     
   16941 H6         549.9509  -465.4413  -383.5258 H6            1 RES     
   16942 H6         552.4472  -465.0247  -383.1957 H6            1 RES     
   16943 H6         552.6207  -466.7223  -382.6192 H6            1 RES     
   16944 H6         551.9194  -467.5726  -384.8598 H6            1 RES     
   16945 H6         553.3935  -466.5411  -384.9135 H6            1 RES     
   16946 H6         550.5537  -465.6223  -385.7047 H6            1 RES     
   16947 H6         552.0442  -464.5925  -385.6940 H6            1 RES     
   16948 H6         551.9176  -466.0081  -386.8049 H6            1 RES     
   16949 H6         545.3964  -462.8410  -380.4136 H6            1 RES     
   16950 H6         544.5738  -461.5467  -381.0360 H6            1 RES     
   16951 H6         544.3764  -462.3865  -378.4986 H6            1 RES     
   16952 H6         545.7656  -461.3038  -378.1762 H6            1 RES     
   16953 H6         542.9712  -460.6237  -379.4326 H6            1 RES     
   16954 H6         544.2560  -459.4318  -379.1384 H6            1 RES     
   16955 H6         544.2083  -459.6987  -376.7540 H6            1 RES     
   16956 H6         542.7096  -459.0971  -377.5586 H6            1 RES     
   16957 H6         541.5815  -461.1937  -377.3656 H6            1 RES     
   16958 H6         542.9689  -461.9173  -376.4546 H6            1 RES     
   16959 H6         542.8152  -460.1229  -374.7362 H6            1 RES     
   16960 H6         541.5006  -459.2907  -375.6338 H6            1 RES     
   16961 H6         540.6821  -460.5311  -373.6789 H6            1 RES     
   16962 H6         541.2642  -462.0893  -374.3773 H6            1 RES     
   16963 H6         539.6683  -461.7486  -376.3264 H6            1 RES     
   16964 H6         538.8063  -461.6923  -374.7512 H6            1 RES     
   16965 H6         539.1734  -460.1578  -375.6216 H6            1 RES     
   16966 C0         550.9843  -455.0629  -392.9967 C0            1 RES     
   16967 C1         550.7328  -454.7493  -391.5053 C1            1 RES     
   16968 C1         551.4919  -453.7149  -391.0591 C1            1 RES     
   16969 S2         551.3114  -453.4085  -389.4233 S2            1 RES     
   16970 C1         550.2215  -454.6997  -389.2339 C1            1 RES     
   16971 C1         550.0198  -455.3517  -390.4554 C1            1 RES     
   16972 C1         552.3130  -453.2643  -392.1153 C1            1 RES     
   16973 C1         552.1178  -454.0572  -393.2035 C1            1 RES     
   16974 C1         552.9981  -453.7614  -394.2374 C1            1 RES     
   16975 C1         553.8336  -452.6884  -393.8839 C1            1 RES     
   16976 S2         553.5063  -452.1232  -392.3165 S2            1 RES     
   16977 H3         549.4225  -456.2408  -390.5260 H3            1 RES     
   16978 H3         553.0362  -454.2905  -395.1820 H3            1 RES     
   16979 N4         555.9895  -450.3791  -395.9013 N4            1 RES     
   16980 C1         554.9215  -450.8656  -395.2036 C1            1 RES     
   16981 C1         554.9450  -452.1664  -394.6712 C1            1 RES     
   16982 C1         556.0967  -452.9331  -394.8570 C1            1 RES     
   16983 N4         556.2715  -454.1792  -394.3470 N4            1 RES     
   16984 S2         557.8102  -454.5426  -394.8289 S2            1 RES     
   16985 N4         558.2898  -453.1984  -395.6663 N4            1 RES     
   16986 C1         557.1998  -452.3978  -395.5684 C1            1 RES     
   16987 C1         557.1201  -451.1133  -396.0999 C1            1 RES     
   16988 H5         554.0435  -450.2398  -395.0692 H5            1 RES     
   16989 C0         549.8600  -454.7677  -394.0509 C0            1 RES     
   16990 C0         549.3188  -453.3967  -394.6071 C0            1 RES     
   16991 C0         548.1112  -453.7795  -395.5333 C0            1 RES     
   16992 C0         547.4216  -452.6319  -396.2815 C0            1 RES     
   16993 C0         546.2171  -453.1191  -397.1209 C0            1 RES     
   16994 C0         546.5467  -454.1124  -398.2570 C0            1 RES     
   16995 C0         547.6088  -453.6233  -399.2574 C0            1 RES     
   16996 C0         547.2328  -452.2931  -399.9340 C0            1 RES     
   16997 C0         548.3193  -451.7791  -400.8895 C0            1 RES     
   16998 C0         548.5072  -452.6707  -402.1286 C0            1 RES     
   16999 C0         549.5140  -452.0870  -403.1326 C0            1 RES     
   17000 C0         550.9412  -452.0244  -402.5872 C0            1 RES     
   17001 C0         548.9531  -452.2487  -393.6104 C0            1 RES     
   17002 C0         547.7740  -452.4541  -392.6103 C0            1 RES     
   17003 C0         548.3060  -452.3136  -391.1808 C0            1 RES     
   17004 C0         547.4180  -452.7914  -390.0354 C0            1 RES     
   17005 C0         546.3064  -451.8472  -389.6014 C0            1 RES     
   17006 C0         545.5722  -452.5010  -388.4120 C0            1 RES     
   17007 C0         544.5443  -451.5943  -387.7312 C0            1 RES     
   17008 C0         545.2001  -450.4239  -386.9953 C0            1 RES     
   17009 H6         548.9902  -455.2656  -393.7054 H6            1 RES     
   17010 H6         550.2023  -455.2953  -394.9697 H6            1 RES     
   17011 H6         550.1277  -452.9698  -395.2411 H6            1 RES     
   17012 H6         547.3316  -454.2901  -394.9267 H6            1 RES     
   17013 H6         548.4803  -454.5079  -396.2867 H6            1 RES     
   17014 H6         548.1544  -452.0990  -396.9210 H6            1 RES     
   17015 H6         547.0118  -451.9108  -395.5458 H6            1 RES     
   17016 H6         545.7180  -452.2291  -397.5568 H6            1 RES     
   17017 H6         545.4721  -453.6001  -396.4490 H6            1 RES     
   17018 H6         545.6047  -454.3310  -398.8077 H6            1 RES     
   17019 H6         546.8958  -455.0741  -397.8240 H6            1 RES     
   17020 H6         548.5807  -453.5086  -398.7326 H6            1 RES     
   17021 H6         547.7298  -454.4167  -400.0239 H6            1 RES     
   17022 H6         547.1150  -451.5147  -399.1528 H6            1 RES     
   17023 H6         546.2664  -452.3948  -400.4747 H6            1 RES     
   17024 H6         548.0112  -450.7680  -401.2345 H6            1 RES     
   17025 H6         549.2692  -451.6792  -400.3236 H6            1 RES     
   17026 H6         548.8405  -453.6888  -401.8390 H6            1 RES     
   17027 H6         547.5261  -452.7561  -402.6445 H6            1 RES     
   17028 H6         549.1889  -451.0706  -403.4450 H6            1 RES     
   17029 H6         549.5214  -452.7388  -404.0327 H6            1 RES     
   17030 H6         551.0114  -451.3438  -401.7148 H6            1 RES     
   17031 H6         551.2831  -453.0391  -402.2916 H6            1 RES     
   17032 H6         551.6193  -451.6370  -403.3762 H6            1 RES     
   17033 H6         548.7083  -451.3473  -394.2119 H6            1 RES     
   17034 H6         549.8802  -451.9393  -393.0820 H6            1 RES     
   17035 H6         546.9860  -451.6832  -392.7649 H6            1 RES     
   17036 H6         547.3153  -453.4523  -392.7617 H6            1 RES     
   17037 H6         548.7183  -451.3020  -390.9820 H6            1 RES     
   17038 H6         549.1228  -453.0032  -391.1548 H6            1 RES     
   17039 H6         547.0211  -453.7799  -390.2793 H6            1 RES     
   17040 H6         548.0855  -452.9151  -389.1524 H6            1 RES     
   17041 H6         546.7868  -450.8940  -389.2944 H6            1 RES     
   17042 H6         545.5954  -451.6482  -390.4309 H6            1 RES     
   17043 H6         545.0542  -453.4126  -388.7874 H6            1 RES     
   17044 H6         546.3013  -452.8257  -387.6351 H6            1 RES     
   17045 H6         544.0069  -452.2038  -386.9717 H6            1 RES     
   17046 H6         543.8050  -451.2251  -388.4728 H6            1 RES     
   17047 H6         545.7250  -449.7456  -387.6965 H6            1 RES     
   17048 H6         544.4228  -449.8387  -386.4632 H6            1 RES     
   17049 H6         545.9281  -450.8041  -386.2442 H6            1 RES     
   17050 C0         551.4492  -456.5724  -393.0272 C0            1 RES     
   17051 C0         550.6262  -457.7864  -393.6557 C0            1 RES     
   17052 C0         551.1793  -459.0894  -392.9859 C0            1 RES     
   17053 C0         550.7218  -460.4147  -393.6282 C0            1 RES     
   17054 C0         551.2696  -461.6685  -392.9239 C0            1 RES     
   17055 C0         552.8029  -461.7968  -392.8842 C0            1 RES     
   17056 C0         553.5027  -461.6980  -394.2499 C0            1 RES     
   17057 C0         553.0122  -462.7441  -395.2663 C0            1 RES     
   17058 C0         553.7176  -462.6287  -396.6273 C0            1 RES     
   17059 C0         555.2150  -462.9782  -396.5573 C0            1 RES     
   17060 C0         555.8947  -462.9853  -397.9354 C0            1 RES     
   17061 C0         555.9402  -461.6059  -398.5930 C0            1 RES     
   17062 C0         549.0477  -457.8443  -393.8042 C0            1 RES     
   17063 C0         548.1076  -457.9410  -392.5694 C0            1 RES     
   17064 C0         547.3728  -456.6183  -392.2872 C0            1 RES     
   17065 C0         546.4753  -456.5859  -391.0611 C0            1 RES     
   17066 C0         545.1629  -457.3525  -391.1455 C0            1 RES     
   17067 C0         544.3654  -457.0249  -389.8666 C0            1 RES     
   17068 C0         542.9434  -457.5884  -389.8436 C0            1 RES     
   17069 C0         542.0382  -456.9227  -390.8812 C0            1 RES     
   17070 H6         551.7671  -456.8537  -391.9962 H6            1 RES     
   17071 H6         552.4286  -456.6050  -393.5561 H6            1 RES     
   17072 H6         550.9510  -457.7995  -394.7217 H6            1 RES     
   17073 H6         550.8885  -459.0977  -391.9132 H6            1 RES     
   17074 H6         552.2887  -459.0532  -393.0389 H6            1 RES     
   17075 H6         551.0079  -460.4208  -394.7009 H6            1 RES     
   17076 H6         549.6216  -460.5169  -393.5575 H6            1 RES     
   17077 H6         550.8473  -462.5573  -393.4397 H6            1 RES     
   17078 H6         550.8921  -461.6949  -391.8781 H6            1 RES     
   17079 H6         553.0504  -462.7751  -392.4171 H6            1 RES     
   17080 H6         553.2199  -461.0055  -392.2253 H6            1 RES     
   17081 H6         553.3534  -460.6808  -394.6712 H6            1 RES     
   17082 H6         554.5876  -461.8307  -394.0618 H6            1 RES     
   17083 H6         551.9298  -462.5837  -395.4527 H6            1 RES     
   17084 H6         553.1468  -463.7696  -394.8592 H6            1 RES     
   17085 H6         553.2270  -463.3446  -397.3222 H6            1 RES     
   17086 H6         553.5674  -461.6017  -397.0228 H6            1 RES     
   17087 H6         555.7586  -462.2705  -395.8981 H6            1 RES     
   17088 H6         555.3113  -463.9998  -396.1293 H6            1 RES     
   17089 H6         555.3760  -463.7028  -398.6077 H6            1 RES     
   17090 H6         556.9415  -463.3332  -397.8001 H6            1 RES     
   17091 H6         554.9204  -461.2256  -398.8038 H6            1 RES     
   17092 H6         556.4749  -460.8857  -397.9377 H6            1 RES     
   17093 H6         556.4841  -461.6781  -399.5582 H6            1 RES     
   17094 H6         548.8564  -458.7630  -394.3886 H6            1 RES     
   17095 H6         548.6530  -457.1283  -394.5494 H6            1 RES     
   17096 H6         547.2952  -458.6588  -392.8184 H6            1 RES     
   17097 H6         548.6487  -458.3439  -391.6893 H6            1 RES     
   17098 H6         546.7977  -456.2982  -393.1856 H6            1 RES     
   17099 H6         548.0934  -455.8410  -392.0585 H6            1 RES     
   17100 H6         547.0561  -456.8786  -390.1595 H6            1 RES     
   17101 H6         546.1672  -455.5316  -390.9662 H6            1 RES     
   17102 H6         544.6198  -456.9962  -392.0462 H6            1 RES     
   17103 H6         545.3406  -458.4446  -391.2331 H6            1 RES     
   17104 H6         544.9267  -457.4323  -388.9970 H6            1 RES     
   17105 H6         544.2897  -455.9214  -389.7305 H6            1 RES     
   17106 H6         542.5172  -457.3690  -388.8401 H6            1 RES     
   17107 H6         542.9655  -458.6868  -389.9876 H6            1 RES     
   17108 H6         542.3812  -457.1340  -391.9135 H6            1 RES     
   17109 H6         541.0060  -457.3141  -390.7715 H6            1 RES     
   17110 H6         542.0153  -455.8221  -390.7229 H6            1 RES     
   17111 C0         560.5055  -449.7404  -400.1288 C0            1 RES     
   17112 C1         559.7653  -449.8930  -398.7818 C1            1 RES     
   17113 C1         560.4970  -449.4318  -397.7344 C1            1 RES     
   17114 S2         559.7619  -449.6666  -396.2488 S2            1 RES     
   17115 C1         558.4285  -450.4481  -396.9575 C1            1 RES     
   17116 C1         558.5833  -450.5151  -398.3464 C1            1 RES     
   17117 C1         561.7443  -448.9782  -398.2153 C1            1 RES     
   17118 C1         561.8214  -449.2153  -399.5527 C1            1 RES     
   17119 C1         563.0785  -448.9249  -400.0692 C1            1 RES     
   17120 C1         563.9233  -448.4262  -399.0633 C1            1 RES     
   17121 S2         563.1413  -448.3600  -397.5575 S2            1 RES     
   17122 H3         557.8808  -451.0399  -398.9656 H3            1 RES     
   17123 H3         563.3659  -449.0693  -401.1038 H3            1 RES     
   17124 N4         567.1511  -446.5237  -399.1725 N4            1 RES     
   17125 C1         565.8162  -446.7939  -399.0781 C1            1 RES     
   17126 C1         565.3401  -448.1102  -399.2066 C1            1 RES     
   17127 C1         566.2713  -449.1303  -399.4097 C1            1 RES     
   17128 N4         565.9511  -450.4471  -399.4928 N4            1 RES     
   17129 S2         567.4333  -451.1581  -399.6643 S2            1 RES     
   17130 N4         568.4879  -449.8831  -399.6441 N4            1 RES     
   17131 C1         567.6537  -448.8260  -399.4845 C1            1 RES     
   17132 C1         568.0757  -447.5034  -399.3773 C1            1 RES     
   17133 H5         565.1183  -445.9781  -398.9107 H5            1 RES     
   17134 C0         559.9808  -448.7089  -401.1888 C0            1 RES     
   17135 C0         560.0197  -447.1340  -401.1846 C0            1 RES     
   17136 C0         559.2203  -446.7020  -402.4640 C0            1 RES     
   17137 C0         559.1525  -445.1994  -402.7635 C0            1 RES     
   17138 C0         558.2986  -444.8887  -404.0154 C0            1 RES     
   17139 C0         558.8185  -445.4747  -405.3466 C0            1 RES     
   17140 C0         560.2676  -445.0954  -405.6994 C0            1 RES     
   17141 C0         560.4922  -443.5746  -405.7729 C0            1 RES     
   17142 C0         561.9508  -443.1982  -406.0698 C0            1 RES     
   17143 C0         562.4073  -443.6089  -407.4799 C0            1 RES     
   17144 C0         563.8293  -443.1264  -407.8075 C0            1 RES     
   17145 C0         564.9033  -443.7838  -406.9399 C0            1 RES     
   17146 C0         559.5565  -446.3530  -399.9116 C0            1 RES     
   17147 C0         558.0660  -446.4442  -399.4614 C0            1 RES     
   17148 C0         558.0111  -447.0120  -398.0399 C0            1 RES     
   17149 C0         556.6631  -447.4954  -397.5128 C0            1 RES     
   17150 C0         555.7097  -446.4226  -397.0073 C0            1 RES     
   17151 C0         554.4426  -447.1296  -396.4820 C0            1 RES     
   17152 C0         553.4588  -446.2052  -395.7611 C0            1 RES     
   17153 C0         554.0148  -445.6889  -394.4323 C0            1 RES     
   17154 H6         558.9585  -448.9399  -401.3477 H6            1 RES     
   17155 H6         560.5301  -448.9724  -402.1208 H6            1 RES     
   17156 H6         561.0852  -446.8424  -401.3196 H6            1 RES     
   17157 H6         558.1732  -447.0672  -402.3825 H6            1 RES     
   17158 H6         559.6840  -447.2060  -403.3389 H6            1 RES     
   17159 H6         560.1756  -444.7864  -402.8752 H6            1 RES     
   17160 H6         558.6577  -444.6806  -401.9177 H6            1 RES     
   17161 H6         558.2213  -443.7863  -404.1152 H6            1 RES     
   17162 H6         557.2633  -445.2636  -403.8557 H6            1 RES     
   17163 H6         558.1452  -445.1280  -406.1621 H6            1 RES     
   17164 H6         558.7473  -446.5831  -405.3210 H6            1 RES     
   17165 H6         560.9547  -445.5338  -404.9452 H6            1 RES     
   17166 H6         560.5006  -445.5601  -406.6799 H6            1 RES     
   17167 H6         560.2529  -443.1292  -404.7859 H6            1 RES     
   17168 H6         559.8190  -443.1215  -406.5333 H6            1 RES     
   17169 H6         562.0352  -442.0927  -405.9872 H6            1 RES     
   17170 H6         562.5990  -443.6556  -405.2930 H6            1 RES     
   17171 H6         562.3656  -444.7106  -407.6063 H6            1 RES     
   17172 H6         561.7149  -443.1449  -408.2158 H6            1 RES     
   17173 H6         563.8869  -442.0213  -407.6992 H6            1 RES     
   17174 H6         564.0447  -443.3810  -408.8677 H6            1 RES     
   17175 H6         564.7745  -443.5232  -405.8700 H6            1 RES     
   17176 H6         564.8677  -444.8877  -407.0573 H6            1 RES     
   17177 H6         565.9041  -443.4247  -407.2593 H6            1 RES     
   17178 H6         559.7737  -445.2766  -400.0808 H6            1 RES     
   17179 H6         560.2454  -446.6080  -399.0780 H6            1 RES     
   17180 H6         557.5940  -445.4361  -399.4513 H6            1 RES     
   17181 H6         557.4947  -447.0861  -400.1625 H6            1 RES     
   17182 H6         558.5253  -446.3579  -397.3046 H6            1 RES     
   17183 H6         558.5773  -447.9159  -398.1154 H6            1 RES     
   17184 H6         556.1855  -448.1196  -398.2720 H6            1 RES     
   17185 H6         556.8851  -448.1521  -396.6410 H6            1 RES     
   17186 H6         556.2292  -445.8813  -396.1884 H6            1 RES     
   17187 H6         555.4445  -445.7034  -397.8108 H6            1 RES     
   17188 H6         553.9255  -447.5976  -397.3502 H6            1 RES     
   17189 H6         554.7168  -447.9458  -395.7754 H6            1 RES     
   17190 H6         552.5460  -446.7974  -395.5305 H6            1 RES     
   17191 H6         553.1716  -445.3591  -396.4202 H6            1 RES     
   17192 H6         554.9088  -445.0528  -394.5854 H6            1 RES     
   17193 H6         553.2417  -445.0826  -393.9180 H6            1 RES     
   17194 H6         554.2857  -446.5437  -393.7731 H6            1 RES     
   17195 C0         560.5980  -451.2041  -400.7158 C0            1 RES     
   17196 C0         559.8410  -451.7340  -402.0167 C0            1 RES     
   17197 C0         559.7832  -453.2938  -401.8902 C0            1 RES     
   17198 C0         559.3332  -454.0489  -403.1572 C0            1 RES     
   17199 C0         559.2682  -455.5762  -402.9805 C0            1 RES     
   17200 C0         560.5929  -456.2626  -402.6024 C0            1 RES     
   17201 C0         561.7754  -455.9614  -403.5381 C0            1 RES     
   17202 C0         561.5046  -456.3340  -405.0064 C0            1 RES     
   17203 C0         562.6939  -456.0221  -405.9292 C0            1 RES     
   17204 C0         563.9258  -456.8967  -405.6348 C0            1 RES     
   17205 C0         565.0717  -456.6755  -406.6343 C0            1 RES     
   17206 C0         565.6759  -455.2732  -406.5588 C0            1 RES     
   17207 C0         558.4773  -451.1544  -402.5836 C0            1 RES     
   17208 C0         557.1321  -451.3205  -401.8214 C0            1 RES     
   17209 C0         556.6584  -450.0062  -401.1752 C0            1 RES     
   17210 C0         555.3833  -450.0733  -400.3510 C0            1 RES     
   17211 C0         554.0750  -450.2256  -401.1141 C0            1 RES     
   17212 C0         552.9338  -450.0926  -400.0850 C0            1 RES     
   17213 C0         551.5305  -450.0663  -400.6935 C0            1 RES     
   17214 C0         551.2770  -448.8009  -401.5142 C0            1 RES     
   17215 H6         560.4149  -451.9200  -399.8810 H6            1 RES     
   17216 H6         561.6726  -451.4082  -400.9244 H6            1 RES     
   17217 H6         560.5463  -451.4957  -402.8460 H6            1 RES     
   17218 H6         559.1009  -453.5653  -401.0559 H6            1 RES     
   17219 H6         560.8024  -453.6507  -401.6279 H6            1 RES     
   17220 H6         560.0082  -453.7881  -403.9992 H6            1 RES     
   17221 H6         558.3007  -453.7586  -403.4319 H6            1 RES     
   17222 H6         558.8966  -456.0110  -403.9329 H6            1 RES     
   17223 H6         558.5149  -455.8224  -402.2000 H6            1 RES     
   17224 H6         560.4139  -457.3599  -402.5820 H6            1 RES     
   17225 H6         560.8820  -455.9596  -401.5734 H6            1 RES     
   17226 H6         562.0328  -454.8824  -403.4762 H6            1 RES     
   17227 H6         562.6407  -456.5386  -403.1532 H6            1 RES     
   17228 H6         560.6469  -455.7344  -405.3767 H6            1 RES     
   17229 H6         561.2378  -457.4099  -405.0881 H6            1 RES     
   17230 H6         562.3699  -456.2205  -406.9741 H6            1 RES     
   17231 H6         562.9426  -454.9431  -405.8411 H6            1 RES     
   17232 H6         564.3092  -456.7126  -404.6101 H6            1 RES     
   17233 H6         563.6174  -457.9626  -405.7069 H6            1 RES     
   17234 H6         564.7135  -456.8728  -407.6680 H6            1 RES     
   17235 H6         565.8761  -457.4063  -406.4017 H6            1 RES     
   17236 H6         564.9325  -454.4981  -406.8339 H6            1 RES     
   17237 H6         566.0558  -455.0735  -405.5342 H6            1 RES     
   17238 H6         566.5243  -455.2011  -407.2715 H6            1 RES     
   17239 H6         558.3323  -451.6758  -403.5475 H6            1 RES     
   17240 H6         558.5760  -450.1336  -402.9983 H6            1 RES     
   17241 H6         556.3455  -451.5568  -402.5715 H6            1 RES     
   17242 H6         557.1805  -452.1710  -401.1117 H6            1 RES     
   17243 H6         556.5685  -449.2084  -401.9471 H6            1 RES     
   17244 H6         557.3842  -449.6778  -400.4397 H6            1 RES     
   17245 H6         555.4831  -450.8507  -399.5626 H6            1 RES     
   17246 H6         555.3046  -449.0825  -399.8740 H6            1 RES     
   17247 H6         554.0225  -449.4074  -401.8631 H6            1 RES     
   17248 H6         554.0260  -451.2038  -401.6362 H6            1 RES     
   17249 H6         553.0034  -450.9508  -399.3809 H6            1 RES     
   17250 H6         553.0573  -449.1587  -399.4896 H6            1 RES     
   17251 H6         550.8048  -450.0676  -399.8507 H6            1 RES     
   17252 H6         551.3634  -450.9735  -401.3073 H6            1 RES     
   17253 H6         551.9414  -448.7521  -402.3996 H6            1 RES     
   17254 H6         550.2258  -448.7988  -401.8685 H6            1 RES     
   17255 H6         551.4382  -447.8965  -400.8873 H6            1 RES     
   17256 C0         572.9830  -446.1647  -401.3020 C0            1 RES     
   17257 C1         571.7598  -446.4910  -400.4171 C1            1 RES     
   17258 C1         572.1043  -446.7229  -399.1237 C1            1 RES     
   17259 S2         570.8131  -447.1700  -398.1566 S2            1 RES     
   17260 C1         569.7277  -447.1117  -399.4640 C1            1 RES     
   17261 C1         570.3960  -446.7460  -400.6376 C1            1 RES     
   17262 C1         573.5069  -446.6217  -399.0012 C1            1 RES     
   17263 C1         574.0480  -446.3924  -400.2282 C1            1 RES     
   17264 C1         575.4372  -446.4234  -400.2072 C1            1 RES     
   17265 C1         575.9072  -446.6500  -398.9026 C1            1 RES     
   17266 S2         574.6329  -446.8270  -397.7943 S2            1 RES     
   17267 H3         569.8955  -446.7279  -401.5871 H3            1 RES     
   17268 H3         576.0678  -446.2958  -401.0789 H3            1 RES     
   17269 N4         579.2531  -446.1513  -397.2881 N4            1 RES     
   17270 C1         577.9644  -445.9283  -397.6801 C1            1 RES     
   17271 C1         577.2983  -446.8465  -398.5101 C1            1 RES     
   17272 C1         577.9833  -447.9986  -398.9004 C1            1 RES     
   17273 N4         577.4383  -448.9901  -399.6510 N4            1 RES     
   17274 S2         578.6712  -450.0880  -399.7300 S2            1 RES     
   17275 N4         579.8872  -449.3800  -398.8592 N4            1 RES     
   17276 C1         579.3142  -448.2164  -398.4638 C1            1 RES     
   17277 C1         579.9418  -447.2655  -397.6634 C1            1 RES     
   17278 H5         577.4565  -445.0257  -397.3515 H5            1 RES     
   17279 C0         573.1590  -444.7149  -401.8765 C0            1 RES     
   17280 C0         573.5410  -443.3701  -401.1502 C0            1 RES     
   17281 C0         573.4251  -442.2617  -402.2550 C0            1 RES     
   17282 C0         573.8150  -440.8353  -401.8482 C0            1 RES     
   17283 C0         573.6128  -439.8213  -402.9987 C0            1 RES     
   17284 C0         574.4694  -440.0576  -404.2621 C0            1 RES     
   17285 C0         575.9855  -440.1389  -404.0110 C0            1 RES     
   17286 C0         576.5518  -438.8820  -403.3268 C0            1 RES     
   17287 C0         578.0538  -438.9887  -403.0268 C0            1 RES     
   17288 C0         578.9236  -439.0231  -404.2948 C0            1 RES     
   17289 C0         580.4286  -439.0140  -403.9826 C0            1 RES     
   17290 C0         580.9013  -440.2753  -403.2587 C0            1 RES     
   17291 C0         572.8011  -442.9659  -399.8333 C0            1 RES     
   17292 C0         571.2736  -442.6543  -399.8819 C0            1 RES     
   17293 C0         570.5411  -443.6162  -398.9416 C0            1 RES     
   17294 C0         569.0237  -443.7222  -399.0646 C0            1 RES     
   17295 C0         568.2119  -442.6209  -398.3985 C0            1 RES     
   17296 C0         566.7180  -442.9491  -398.6031 C0            1 RES     
   17297 C0         565.7617  -442.0394  -397.8285 C0            1 RES     
   17298 C0         565.8510  -442.2564  -396.3165 C0            1 RES     
   17299 H6         572.2576  -444.4850  -402.3846 H6            1 RES     
   17300 H6         573.9567  -444.8215  -402.6460 H6            1 RES     
   17301 H6         574.6098  -443.4619  -400.8538 H6            1 RES     
   17302 H6         572.3774  -442.2217  -402.6254 H6            1 RES     
   17303 H6         574.0707  -442.5645  -403.1071 H6            1 RES     
   17304 H6         574.8637  -440.8147  -401.4881 H6            1 RES     
   17305 H6         573.1563  -440.4984  -401.0224 H6            1 RES     
   17306 H6         573.8271  -438.8061  -402.6053 H6            1 RES     
   17307 H6         572.5428  -439.8210  -403.3038 H6            1 RES     
   17308 H6         574.2651  -439.2295  -404.9769 H6            1 RES     
   17309 H6         574.1502  -440.9978  -404.7604 H6            1 RES     
   17310 H6         576.2058  -441.0301  -403.3862 H6            1 RES     
   17311 H6         576.4753  -440.2866  -404.9958 H6            1 RES     
   17312 H6         576.0496  -438.7509  -402.3467 H6            1 RES     
   17313 H6         576.3496  -437.9811  -403.9465 H6            1 RES     
   17314 H6         578.3417  -438.0931  -402.4341 H6            1 RES     
   17315 H6         578.2263  -439.8898  -402.4016 H6            1 RES     
   17316 H6         578.6919  -439.9158  -404.9119 H6            1 RES     
   17317 H6         578.6971  -438.1141  -404.8937 H6            1 RES     
   17318 H6         580.6823  -438.1178  -403.3752 H6            1 RES     
   17319 H6         580.9804  -438.9462  -404.9449 H6            1 RES     
   17320 H6         580.4242  -440.3729  -402.2628 H6            1 RES     
   17321 H6         580.6710  -441.1753  -403.8676 H6            1 RES     
   17322 H6         581.9995  -440.2213  -403.1060 H6            1 RES     
   17323 H6         573.2998  -442.0571  -399.4335 H6            1 RES     
   17324 H6         573.0325  -443.7268  -399.0575 H6            1 RES     
   17325 H6         571.0716  -441.6141  -399.5410 H6            1 RES     
   17326 H6         570.8965  -442.7571  -400.9197 H6            1 RES     
   17327 H6         570.8565  -443.4938  -397.8840 H6            1 RES     
   17328 H6         570.8758  -444.5784  -399.2663 H6            1 RES     
   17329 H6         568.7569  -443.8239  -400.1194 H6            1 RES     
   17330 H6         568.7343  -444.6723  -398.5604 H6            1 RES     
   17331 H6         568.4743  -442.6268  -397.3194 H6            1 RES     
   17332 H6         568.4498  -441.6247  -398.8276 H6            1 RES     
   17333 H6         566.4934  -442.8637  -399.6905 H6            1 RES     
   17334 H6         566.5047  -443.9990  -398.2981 H6            1 RES     
   17335 H6         564.7251  -442.2963  -398.1394 H6            1 RES     
   17336 H6         565.9514  -440.9753  -398.0828 H6            1 RES     
   17337 H6         566.8501  -441.9816  -395.9246 H6            1 RES     
   17338 H6         565.0934  -441.6273  -395.8066 H6            1 RES     
   17339 H6         565.6449  -443.3221  -396.0703 H6            1 RES     
   17340 C0         572.9716  -447.2601  -402.4403 C0            1 RES     
   17341 C0         572.6888  -446.9907  -403.9874 C0            1 RES     
   17342 C0         572.2420  -448.3607  -404.6004 C0            1 RES     
   17343 C0         572.1702  -448.4101  -406.1400 C0            1 RES     
   17344 C0         571.7044  -449.7667  -406.6974 C0            1 RES     
   17345 C0         572.5866  -450.9756  -406.3381 C0            1 RES     
   17346 C0         574.0761  -450.8251  -406.6892 C0            1 RES     
   17347 C0         574.3280  -450.5401  -408.1804 C0            1 RES     
   17348 C0         575.8209  -450.3873  -408.5137 C0            1 RES     
   17349 C0         576.6112  -451.6960  -408.3354 C0            1 RES     
   17350 C0         578.0755  -451.5791  -408.7865 C0            1 RES     
   17351 C0         578.8959  -450.6152  -407.9292 C0            1 RES     
   17352 C0         571.8222  -445.7944  -404.5661 C0            1 RES     
   17353 C0         570.2855  -445.7085  -404.3446 C0            1 RES     
   17354 C0         569.9003  -444.6231  -403.3234 C0            1 RES     
   17355 C0         568.4237  -444.4989  -402.9858 C0            1 RES     
   17356 C0         567.5214  -443.8873  -404.0483 C0            1 RES     
   17357 C0         566.1283  -443.7101  -403.4105 C0            1 RES     
   17358 C0         565.1201  -442.9629  -404.2853 C0            1 RES     
   17359 C0         565.4962  -441.4931  -404.4789 C0            1 RES     
   17360 H6         572.3220  -448.1001  -402.1006 H6            1 RES     
   17361 H6         573.9676  -447.7579  -402.4284 H6            1 RES     
   17362 H6         573.6967  -446.7564  -404.4014 H6            1 RES     
   17363 H6         571.2454  -448.6337  -404.1911 H6            1 RES     
   17364 H6         572.9699  -449.1330  -404.2709 H6            1 RES     
   17365 H6         573.1608  -448.1409  -406.5626 H6            1 RES     
   17366 H6         571.4205  -447.6860  -406.5137 H6            1 RES     
   17367 H6         571.6501  -449.6768  -407.8034 H6            1 RES     
   17368 H6         570.6712  -449.9732  -406.3412 H6            1 RES     
   17369 H6         572.1756  -451.8650  -406.8641 H6            1 RES     
   17370 H6         572.5080  -451.1756  -405.2482 H6            1 RES     
   17371 H6         574.5206  -450.0088  -406.0807 H6            1 RES     
   17372 H6         574.5697  -451.7738  -406.3953 H6            1 RES     
   17373 H6         573.8404  -449.5799  -408.4496 H6            1 RES     
   17374 H6         573.8834  -451.3435  -408.8067 H6            1 RES     
   17375 H6         575.8976  -450.0788  -409.5791 H6            1 RES     
   17376 H6         576.2473  -449.5768  -407.8853 H6            1 RES     
   17377 H6         576.5923  -452.0317  -407.2780 H6            1 RES     
   17378 H6         576.1281  -452.4788  -408.9599 H6            1 RES     
   17379 H6         578.1175  -451.2609  -409.8509 H6            1 RES     
   17380 H6         578.5403  -452.5855  -408.7079 H6            1 RES     
   17381 H6         578.5119  -449.5782  -408.0081 H6            1 RES     
   17382 H6         578.8772  -450.9361  -406.8659 H6            1 RES     
   17383 H6         579.9489  -450.6173  -408.2815 H6            1 RES     
   17384 H6         571.9555  -445.8584  -405.6616 H6            1 RES     
   17385 H6         572.2992  -444.8053  -404.4319 H6            1 RES     
   17386 H6         569.8253  -445.3651  -405.2972 H6            1 RES     
   17387 H6         569.8619  -446.7064  -404.1117 H6            1 RES     
   17388 H6         570.2996  -443.6341  -403.6440 H6            1 RES     
   17389 H6         570.3324  -444.8596  -402.3575 H6            1 RES     
   17390 H6         568.0312  -445.4796  -402.6393 H6            1 RES     
   17391 H6         568.3858  -443.7791  -402.1516 H6            1 RES     
   17392 H6         567.9498  -442.9023  -404.3304 H6            1 RES     
   17393 H6         567.4659  -444.5338  -404.9488 H6            1 RES     
   17394 H6         565.7240  -444.7205  -403.1803 H6            1 RES     
   17395 H6         566.2119  -443.1545  -402.4481 H6            1 RES     
   17396 H6         564.1413  -442.9896  -403.7580 H6            1 RES     
   17397 H6         565.0108  -443.4732  -405.2628 H6            1 RES     
   17398 H6         566.4476  -441.3883  -405.0372 H6            1 RES     
   17399 H6         564.6973  -440.9837  -405.0557 H6            1 RES     
   17400 H6         565.5945  -440.9877  -403.4931 H6            1 RES     
   17401 C0         585.3745  -447.2414  -397.4108 C0            1 RES     
   17402 C1         583.8630  -447.3812  -397.1251 C1            1 RES     
   17403 C1         583.6116  -448.1549  -396.0372 C1            1 RES     
   17404 S2         581.9804  -448.4025  -395.7539 S2            1 RES     
   17405 C1         581.5374  -447.5024  -397.1266 C1            1 RES     
   17406 C1         582.6755  -447.0255  -397.7862 C1            1 RES     
   17407 C1         584.8382  -448.6237  -395.5190 C1            1 RES     
   17408 C1         585.8535  -448.1995  -396.3191 C1            1 RES     
   17409 C1         587.0785  -448.7426  -395.9508 C1            1 RES     
   17410 C1         586.9360  -449.5616  -394.8180 C1            1 RES     
   17411 S2         585.3244  -449.6308  -394.2878 S2            1 RES     
   17412 H3         582.6053  -446.4983  -398.7186 H3            1 RES     
   17413 H3         588.0118  -448.5619  -396.4707 H3            1 RES     
   17414 N4         589.4000  -450.9148  -392.3385 N4            1 RES     
   17415 C1         588.4527  -450.1145  -392.9099 C1            1 RES     
   17416 C1         587.9803  -450.3767  -394.2075 C1            1 RES     
   17417 C1         588.4897  -451.4879  -394.8816 C1            1 RES     
   17418 N4         588.0780  -451.8852  -396.1130 N4            1 RES     
   17419 S2         588.9664  -453.2580  -396.3536 S2            1 RES     
   17420 N4         589.8672  -453.3930  -394.9720 N4            1 RES     
   17421 C1         589.4582  -452.3146  -394.2589 C1            1 RES     
   17422 C1         589.9152  -451.9999  -392.9818 C1            1 RES     
   17423 H5         588.0703  -449.2624  -392.3547 H5            1 RES     
   17424 C0         586.0782  -445.8549  -397.1983 C0            1 RES     
   17425 C0         586.4322  -445.0843  -395.8707 C0            1 RES     
   17426 C0         587.0078  -443.7024  -396.3413 C0            1 RES     
   17427 C0         587.5123  -442.7536  -395.2469 C0            1 RES     
   17428 C0         588.0078  -441.4057  -395.8219 C0            1 RES     
   17429 C0         589.2160  -441.4869  -396.7809 C0            1 RES     
   17430 C0         590.4529  -442.1994  -396.2059 C0            1 RES     
   17431 C0         590.9684  -441.5577  -394.9055 C0            1 RES     
   17432 C0         592.1679  -442.3038  -394.3040 C0            1 RES     
   17433 C0         593.4344  -442.2138  -395.1721 C0            1 RES     
   17434 C0         594.6574  -442.8652  -394.5072 C0            1 RES     
   17435 C0         594.5159  -444.3782  -394.3368 C0            1 RES     
   17436 C0         585.3445  -444.9193  -394.7595 C0            1 RES     
   17437 C0         584.0690  -444.0737  -395.0607 C0            1 RES     
   17438 C0         582.8330  -444.9614  -394.8866 C0            1 RES     
   17439 C0         581.5032  -444.4545  -395.4375 C0            1 RES     
   17440 C0         580.7611  -443.4361  -394.5845 C0            1 RES     
   17441 C0         579.4350  -443.1016  -395.2992 C0            1 RES     
   17442 C0         578.4789  -442.2332  -394.4783 C0            1 RES     
   17443 C0         577.9173  -442.9762  -393.2643 C0            1 RES     
   17444 H6         585.5238  -445.1503  -397.7639 H6            1 RES     
   17445 H6         587.0686  -445.9732  -397.6932 H6            1 RES     
   17446 H6         587.2497  -445.6576  -395.3792 H6            1 RES     
   17447 H6         586.2267  -443.1559  -396.9138 H6            1 RES     
   17448 H6         587.8514  -443.9058  -397.0352 H6            1 RES     
   17449 H6         588.3117  -443.2445  -394.6556 H6            1 RES     
   17450 H6         586.6749  -442.5068  -394.5634 H6            1 RES     
   17451 H6         588.2698  -440.7433  -394.9711 H6            1 RES     
   17452 H6         587.1725  -440.9081  -396.3625 H6            1 RES     
   17453 H6         589.4975  -440.4496  -397.0692 H6            1 RES     
   17454 H6         588.9182  -442.0099  -397.7148 H6            1 RES     
   17455 H6         590.2069  -443.2660  -396.0188 H6            1 RES     
   17456 H6         591.2438  -442.1659  -396.9837 H6            1 RES     
   17457 H6         590.1645  -441.5993  -394.1426 H6            1 RES     
   17458 H6         591.2306  -440.4910  -395.0792 H6            1 RES     
   17459 H6         592.3908  -441.8405  -393.3182 H6            1 RES     
   17460 H6         591.8770  -443.3616  -394.1336 H6            1 RES     
   17461 H6         593.2719  -442.6867  -396.1628 H6            1 RES     
   17462 H6         593.6685  -441.1385  -395.3308 H6            1 RES     
   17463 H6         594.8441  -442.3940  -393.5175 H6            1 RES     
   17464 H6         595.5426  -442.6761  -395.1519 H6            1 RES     
   17465 H6         593.6776  -444.6321  -393.6572 H6            1 RES     
   17466 H6         594.3498  -444.8608  -395.3234 H6            1 RES     
   17467 H6         595.4483  -444.7868  -393.8941 H6            1 RES     
   17468 H6         585.8342  -444.4552  -393.8768 H6            1 RES     
   17469 H6         585.0781  -445.9296  -394.3818 H6            1 RES     
   17470 H6         583.9853  -443.2190  -394.3525 H6            1 RES     
   17471 H6         584.1167  -443.6656  -396.0907 H6            1 RES     
   17472 H6         582.7267  -445.3369  -393.8470 H6            1 RES     
   17473 H6         583.0461  -445.8029  -395.5108 H6            1 RES     
   17474 H6         581.6564  -444.0800  -396.4525 H6            1 RES     
   17475 H6         580.8365  -445.3436  -395.5135 H6            1 RES     
   17476 H6         580.5706  -443.9105  -393.5985 H6            1 RES     
   17477 H6         581.3625  -442.5143  -394.4371 H6            1 RES     
   17478 H6         579.6800  -442.5695  -396.2463 H6            1 RES     
   17479 H6         578.8923  -444.0358  -395.5702 H6            1 RES     
   17480 H6         577.6186  -441.9679  -395.1315 H6            1 RES     
   17481 H6         578.9838  -441.2956  -394.1639 H6            1 RES     
   17482 H6         578.7163  -443.2403  -392.5439 H6            1 RES     
   17483 H6         577.1803  -442.3315  -392.7439 H6            1 RES     
   17484 H6         577.4005  -443.9064  -393.5907 H6            1 RES     
   17485 C0         585.5682  -447.7899  -398.8795 C0            1 RES     
   17486 C0         585.9825  -446.9187  -400.1505 C0            1 RES     
   17487 C0         585.5207  -447.7265  -401.4101 C0            1 RES     
   17488 C0         586.0497  -447.2105  -402.7635 C0            1 RES     
   17489 C0         585.5520  -448.0191  -403.9746 C0            1 RES     
   17490 C0         585.9308  -449.5108  -403.9838 C0            1 RES     
   17491 C0         587.4316  -449.8051  -403.8242 C0            1 RES     
   17492 C0         588.3047  -449.1356  -404.9002 C0            1 RES     
   17493 C0         589.8021  -449.4353  -404.7235 C0            1 RES     
   17494 C0         590.1477  -450.9170  -404.9562 C0            1 RES     
   17495 C0         591.6578  -451.1965  -404.9037 C0            1 RES     
   17496 C0         592.2674  -450.9608  -403.5217 C0            1 RES     
   17497 C0         585.7011  -445.3677  -400.3299 C0            1 RES     
   17498 C0         584.2613  -444.8071  -400.5054 C0            1 RES     
   17499 C0         583.7572  -444.0814  -399.2450 C0            1 RES     
   17500 C0         582.3341  -443.5499  -399.2885 C0            1 RES     
   17501 C0         582.0810  -442.3236  -400.1541 C0            1 RES     
   17502 C0         580.6263  -441.8808  -399.8958 C0            1 RES     
   17503 C0         580.2351  -440.5634  -400.5679 C0            1 RES     
   17504 C0         580.9724  -439.3646  -399.9693 C0            1 RES     
   17505 H6         584.6689  -448.3950  -399.1405 H6            1 RES     
   17506 H6         586.3424  -448.5890  -398.8334 H6            1 RES     
   17507 H6         587.0966  -446.9424  -400.1330 H6            1 RES     
   17508 H6         584.4099  -447.7388  -401.4462 H6            1 RES     
   17509 H6         585.8701  -448.7743  -401.2877 H6            1 RES     
   17510 H6         587.1596  -447.1948  -402.7421 H6            1 RES     
   17511 H6         585.6874  -446.1812  -402.9511 H6            1 RES     
   17512 H6         585.9574  -447.5391  -404.8909 H6            1 RES     
   17513 H6         584.4441  -447.9421  -404.0354 H6            1 RES     
   17514 H6         585.5732  -449.9467  -404.9424 H6            1 RES     
   17515 H6         585.3886  -450.0316  -403.1659 H6            1 RES     
   17516 H6         587.7706  -449.4732  -402.8196 H6            1 RES     
   17517 H6         587.5467  -450.9071  -403.8734 H6            1 RES     
   17518 H6         588.1878  -448.0344  -404.8232 H6            1 RES     
   17519 H6         587.9756  -449.4502  -405.9141 H6            1 RES     
   17520 H6         590.3570  -448.8285  -405.4719 H6            1 RES     
   17521 H6         590.1157  -449.1087  -403.7093 H6            1 RES     
   17522 H6         589.6416  -451.5656  -404.2119 H6            1 RES     
   17523 H6         589.7880  -451.2003  -405.9695 H6            1 RES     
   17524 H6         592.1835  -450.5690  -405.6559 H6            1 RES     
   17525 H6         591.8190  -452.2634  -405.1700 H6            1 RES     
   17526 H6         592.1853  -449.8971  -403.2205 H6            1 RES     
   17527 H6         591.7624  -451.5989  -402.7655 H6            1 RES     
   17528 H6         593.3452  -451.2266  -403.5466 H6            1 RES     
   17529 H6         586.2357  -445.0930  -401.2577 H6            1 RES     
   17530 H6         586.2933  -444.7345  -399.6429 H6            1 RES     
   17531 H6         584.3003  -444.0125  -401.2828 H6            1 RES     
   17532 H6         583.5706  -445.5945  -400.8695 H6            1 RES     
   17533 H6         584.4586  -443.2625  -398.9660 H6            1 RES     
   17534 H6         583.7115  -444.7780  -398.4154 H6            1 RES     
   17535 H6         581.6304  -444.3731  -399.5398 H6            1 RES     
   17536 H6         582.1323  -443.2026  -398.2617 H6            1 RES     
   17537 H6         582.7923  -441.5321  -399.8365 H6            1 RES     
   17538 H6         582.2415  -442.5504  -401.2287 H6            1 RES     
   17539 H6         579.9512  -442.6850  -400.2627 H6            1 RES     
   17540 H6         580.4464  -441.7641  -398.8022 H6            1 RES     
   17541 H6         579.1484  -440.4103  -400.3873 H6            1 RES     
   17542 H6         580.4079  -440.6262  -401.6606 H6            1 RES     
   17543 H6         582.0640  -439.4296  -400.1481 H6            1 RES     
   17544 H6         580.5984  -438.4324  -400.4400 H6            1 RES     
   17545 H6         580.7853  -439.3049  -398.8746 H6            1 RES     
   17546 C0         594.6712  -454.0567  -391.3304 C0            1 RES     
   17547 C1         593.1788  -453.7225  -391.5466 C1            1 RES     
   17548 C1         592.3562  -454.6749  -391.0353 C1            1 RES     
   17549 S2         590.7339  -454.3891  -391.3338 S2            1 RES     
   17550 C1         591.0765  -452.9746  -392.2129 C1            1 RES     
   17551 C1         592.4569  -452.7516  -392.2607 C1            1 RES     
   17552 C1         593.1440  -455.7084  -390.4840 C1            1 RES     
   17553 C1         594.4582  -455.4373  -390.7077 C1            1 RES     
   17554 C1         595.2870  -456.4826  -390.3181 C1            1 RES     
   17555 C1         594.5339  -457.5295  -389.7604 C1            1 RES     
   17556 S2         592.8717  -457.1822  -389.7626 S2            1 RES     
   17557 H3         592.8770  -451.9481  -392.8353 H3            1 RES     
   17558 H3         596.3642  -456.4887  -390.4346 H3            1 RES     
   17559 N4         595.4608  -460.4585  -387.6128 N4            1 RES     
   17560 C1         595.0167  -459.2226  -387.9863 C1            1 RES     
   17561 C1         595.0459  -458.8273  -389.3348 C1            1 RES     
   17562 C1         595.5191  -459.7408  -390.2786 C1            1 RES     
   17563 N4         595.5467  -459.5074  -391.6158 N4            1 RES     
   17564 S2         596.1300  -460.9356  -392.2089 S2            1 RES     
   17565 N4         596.3622  -461.8599  -390.8561 N4            1 RES     
   17566 C1         595.9562  -461.0251  -389.8677 C1            1 RES     
   17567 C1         595.9327  -461.3622  -388.5169 C1            1 RES     
   17568 H5         594.6462  -458.5383  -387.2279 H5            1 RES     
   17569 C0         595.5233  -453.1903  -390.3374 C0            1 RES     
   17570 C0         595.4892  -453.1132  -388.7642 C0            1 RES     
   17571 C0         596.4938  -451.9676  -388.3891 C0            1 RES     
   17572 C0         596.7250  -451.7112  -386.8948 C0            1 RES     
   17573 C0         597.6916  -450.5297  -386.6450 C0            1 RES     
   17574 C0         599.1284  -450.7109  -387.1822 C0            1 RES     
   17575 C0         599.8491  -451.9783  -386.6900 C0            1 RES     
   17576 C0         599.9413  -452.0624  -385.1560 C0            1 RES     
   17577 C0         600.6109  -453.3544  -384.6662 C0            1 RES     
   17578 C0         602.1020  -453.4404  -385.0332 C0            1 RES     
   17579 C0         602.7886  -454.6811  -384.4402 C0            1 RES     
   17580 C0         602.2602  -455.9952  -385.0166 C0            1 RES     
   17581 C0         594.1187  -452.9564  -388.0278 C0            1 RES     
   17582 C0         593.2855  -451.6546  -388.2367 C0            1 RES     
   17583 C0         591.9171  -452.0288  -388.8141 C0            1 RES     
   17584 C0         591.0584  -450.9133  -389.4032 C0            1 RES     
   17585 C0         590.2869  -450.0565  -388.4101 C0            1 RES     
   17586 C0         589.4576  -449.0347  -389.2159 C0            1 RES     
   17587 C0         588.4744  -448.2180  -388.3741 C0            1 RES     
   17588 C0         587.3321  -449.0739  -387.8229 C0            1 RES     
   17589 H6         595.4064  -452.1829  -390.6461 H6            1 RES     
   17590 H6         596.5755  -453.4842  -390.5528 H6            1 RES     
   17591 H6         595.8991  -454.0780  -388.3902 H6            1 RES     
   17592 H6         596.1423  -451.0115  -388.8348 H6            1 RES     
   17593 H6         597.4741  -452.2125  -388.8513 H6            1 RES     
   17594 H6         597.0979  -452.6327  -386.4031 H6            1 RES     
   17595 H6         595.7639  -451.4276  -386.4202 H6            1 RES     
   17596 H6         597.7383  -450.3476  -385.5514 H6            1 RES     
   17597 H6         597.2682  -449.6068  -387.0998 H6            1 RES     
   17598 H6         599.7227  -449.8182  -386.8847 H6            1 RES     
   17599 H6         599.1132  -450.7306  -388.2929 H6            1 RES     
   17600 H6         599.3199  -452.8743  -387.0776 H6            1 RES     
   17601 H6         600.8679  -451.9702  -387.1302 H6            1 RES     
   17602 H6         598.9151  -452.0676  -384.7354 H6            1 RES     
   17603 H6         600.4799  -451.1770  -384.7527 H6            1 RES     
   17604 H6         600.5256  -453.3767  -383.5578 H6            1 RES     
   17605 H6         600.0499  -454.2205  -385.0758 H6            1 RES     
   17606 H6         602.2409  -453.4469  -386.1341 H6            1 RES     
   17607 H6         602.6115  -452.5424  -384.6205 H6            1 RES     
   17608 H6         602.6713  -454.6847  -383.3345 H6            1 RES     
   17609 H6         603.8737  -454.6192  -384.6720 H6            1 RES     
   17610 H6         601.1889  -456.1424  -384.7722 H6            1 RES     
   17611 H6         602.3921  -456.0101  -386.1194 H6            1 RES     
   17612 H6         602.8284  -456.8428  -384.5795 H6            1 RES     
   17613 H6         594.3123  -453.0402  -386.9370 H6            1 RES     
   17614 H6         593.5088  -453.8622  -388.2329 H6            1 RES     
   17615 H6         593.1223  -451.1304  -387.2683 H6            1 RES     
   17616 H6         593.8227  -450.9634  -388.9174 H6            1 RES     
   17617 H6         591.3311  -452.6736  -388.1258 H6            1 RES     
   17618 H6         592.1658  -452.6180  -389.6710 H6            1 RES     
   17619 H6         591.6764  -450.2949  -390.0587 H6            1 RES     
   17620 H6         590.2961  -451.4107  -390.0451 H6            1 RES     
   17621 H6         589.6248  -450.7374  -387.8343 H6            1 RES     
   17622 H6         590.9702  -449.5315  -387.7096 H6            1 RES     
   17623 H6         590.1659  -448.3373  -389.7181 H6            1 RES     
   17624 H6         588.8725  -449.5491  -390.0119 H6            1 RES     
   17625 H6         588.0214  -447.4478  -389.0365 H6            1 RES     
   17626 H6         589.0095  -447.7017  -387.5495 H6            1 RES     
   17627 H6         587.7042  -449.8438  -387.1187 H6            1 RES     
   17628 H6         586.6128  -448.4269  -387.2809 H6            1 RES     
   17629 H6         586.7927  -449.5752  -388.6574 H6            1 RES     
   17630 C0         595.2990  -454.0937  -392.7795 C0            1 RES     
   17631 C0         596.3606  -453.0534  -393.3600 C0            1 RES     
   17632 C0         596.2635  -453.1465  -394.9202 C0            1 RES     
   17633 C0         597.3812  -452.4266  -395.7016 C0            1 RES     
   17634 C0         597.2329  -452.5240  -397.2302 C0            1 RES     
   17635 C0         597.2442  -453.9483  -397.8136 C0            1 RES     
   17636 C0         598.4562  -454.8075  -397.4170 C0            1 RES     
   17637 C0         599.8061  -454.1770  -397.8021 C0            1 RES     
   17638 C0         601.0072  -455.0455  -397.3943 C0            1 RES     
   17639 C0         601.0787  -456.3717  -398.1723 C0            1 RES     
   17640 C0         602.3443  -457.1845  -397.8578 C0            1 RES     
   17641 C0         602.3985  -457.6821  -396.4133 C0            1 RES     
   17642 C0         596.5233  -451.5484  -392.8851 C0            1 RES     
   17643 C0         595.4311  -450.4760  -393.1588 C0            1 RES     
   17644 C0         594.6473  -450.1002  -391.8884 C0            1 RES     
   17645 C0         593.5116  -449.1047  -392.0583 C0            1 RES     
   17646 C0         593.8970  -447.6534  -392.3078 C0            1 RES     
   17647 C0         592.5952  -446.8272  -392.2689 C0            1 RES     
   17648 C0         592.8015  -445.3135  -392.3484 C0            1 RES     
   17649 C0         593.4904  -444.7550  -391.1024 C0            1 RES     
   17650 H6         594.4645  -454.1967  -393.5117 H6            1 RES     
   17651 H6         595.7950  -455.0835  -392.8986 H6            1 RES     
   17652 H6         597.3430  -453.4881  -393.0636 H6            1 RES     
   17653 H6         595.2833  -452.7377  -395.2480 H6            1 RES     
   17654 H6         596.2953  -454.2220  -395.1983 H6            1 RES     
   17655 H6         598.3670  -452.8271  -395.3850 H6            1 RES     
   17656 H6         597.3595  -451.3399  -395.4908 H6            1 RES     
   17657 H6         598.0607  -451.9411  -397.6877 H6            1 RES     
   17658 H6         596.2848  -452.0306  -397.5379 H6            1 RES     
   17659 H6         597.2046  -453.8624  -398.9216 H6            1 RES     
   17660 H6         596.3239  -454.4823  -397.4943 H6            1 RES     
   17661 H6         598.4382  -454.9923  -396.3216 H6            1 RES     
   17662 H6         598.3341  -455.7846  -397.9273 H6            1 RES     
   17663 H6         599.9155  -453.2095  -397.2690 H6            1 RES     
   17664 H6         599.8404  -453.9776  -398.8950 H6            1 RES     
   17665 H6         601.9306  -454.4659  -397.6120 H6            1 RES     
   17666 H6         600.9616  -455.2290  -396.2998 H6            1 RES     
   17667 H6         600.1911  -457.0039  -397.9641 H6            1 RES     
   17668 H6         601.0925  -456.1343  -399.2585 H6            1 RES     
   17669 H6         603.2478  -456.5749  -398.0772 H6            1 RES     
   17670 H6         602.3563  -458.0731  -398.5252 H6            1 RES     
   17671 H6         602.4427  -456.8372  -395.6969 H6            1 RES     
   17672 H6         601.5096  -458.3097  -396.1899 H6            1 RES     
   17673 H6         603.3115  -458.2979  -396.2721 H6            1 RES     
   17674 H6         597.4255  -451.1862  -393.4113 H6            1 RES     
   17675 H6         596.9228  -451.4559  -391.8577 H6            1 RES     
   17676 H6         595.9470  -449.5351  -393.4516 H6            1 RES     
   17677 H6         594.7829  -450.7772  -394.0065 H6            1 RES     
   17678 H6         595.3454  -449.7462  -391.0961 H6            1 RES     
   17679 H6         594.1267  -450.9721  -391.5084 H6            1 RES     
   17680 H6         592.7997  -449.4711  -392.8296 H6            1 RES     
   17681 H6         593.0056  -449.0858  -391.0790 H6            1 RES     
   17682 H6         594.5828  -447.3400  -391.4924 H6            1 RES     
   17683 H6         594.4117  -447.5365  -393.2842 H6            1 RES     
   17684 H6         591.9583  -447.1477  -393.1226 H6            1 RES     
   17685 H6         592.0313  -447.0386  -391.3312 H6            1 RES     
   17686 H6         591.7945  -444.8455  -392.4102 H6            1 RES     
   17687 H6         593.3707  -445.0532  -393.2628 H6            1 RES     
   17688 H6         594.5207  -445.1492  -390.9978 H6            1 RES     
   17689 H6         593.5478  -443.6499  -391.1800 H6            1 RES     
   17690 H6         592.9072  -445.0134  -390.1914 H6            1 RES     
   17691 C0         599.0749  -465.4524  -386.7921 C0            1 RES     
   17692 C1         597.9015  -464.5421  -387.2167 C1            1 RES     
   17693 C1         596.7555  -465.2402  -387.4276 C1            1 RES     
   17694 S2         595.4877  -464.2958  -387.9783 S2            1 RES     
   17695 C1         596.4518  -462.8955  -387.9978 C1            1 RES     
   17696 C1         597.7523  -463.1921  -387.5755 C1            1 RES     
   17697 C1         597.0134  -466.6123  -387.2186 C1            1 RES     
   17698 C1         598.3346  -466.7822  -386.9418 C1            1 RES     
   17699 C1         598.6900  -468.1235  -386.8652 C1            1 RES     
   17700 C1         597.5669  -468.9448  -387.0611 C1            1 RES     
   17701 S2         596.1608  -468.0351  -387.3419 S2            1 RES     
   17702 H3         598.5308  -462.4531  -387.5915 H3            1 RES     
   17703 H3         599.6959  -468.4831  -386.6847 H3            1 RES     
   17704 N4         596.9028  -472.5572  -386.3125 N4            1 RES     
   17705 C1         596.9266  -471.1977  -386.1882 C1            1 RES     
   17706 C1         597.5695  -470.4007  -387.1512 C1            1 RES     
   17707 C1         598.1597  -471.0368  -388.2447 C1            1 RES     
   17708 N4         598.7608  -470.3830  -389.2717 N4            1 RES     
   17709 S2         599.1979  -471.6254  -390.2703 S2            1 RES     
   17710 N4         598.6695  -472.9766  -389.4745 N4            1 RES     
   17711 C1         598.1042  -472.4485  -388.3608 C1            1 RES     
   17712 C1         597.4786  -473.1981  -387.3682 C1            1 RES     
   17713 H5         596.4499  -470.7331  -385.3294 H5            1 RES     
   17714 C0         599.6379  -465.3594  -385.3302 C0            1 RES     
   17715 C0         599.0072  -465.8243  -383.9634 C0            1 RES     
   17716 C0         600.0107  -465.3324  -382.8619 C0            1 RES     
   17717 C0         599.6875  -465.7123  -381.4115 C0            1 RES     
   17718 C0         600.7143  -465.1321  -380.4105 C0            1 RES     
   17719 C0         602.1676  -465.6292  -380.5734 C0            1 RES     
   17720 C0         602.3371  -467.1583  -380.5381 C0            1 RES     
   17721 C0         601.7988  -467.7951  -379.2445 C0            1 RES     
   17722 C0         601.9181  -469.3259  -379.2359 C0            1 RES     
   17723 C0         603.3742  -469.8196  -379.1964 C0            1 RES     
   17724 C0         603.4795  -471.3479  -379.0722 C0            1 RES     
   17725 C0         602.9429  -472.0902  -380.2966 C0            1 RES     
   17726 C0         597.5296  -465.4413  -383.6244 C0            1 RES     
   17727 C0         597.1561  -463.9393  -383.4319 C0            1 RES     
   17728 C0         596.0782  -463.5616  -384.4524 C0            1 RES     
   17729 C0         595.7899  -462.0796  -384.6752 C0            1 RES     
   17730 C0         594.9013  -461.4003  -383.6435 C0            1 RES     
   17731 C0         594.7036  -459.9351  -384.0855 C0            1 RES     
   17732 C0         593.6765  -459.1605  -383.2565 C0            1 RES     
   17733 C0         592.2508  -459.6719  -383.4736 C0            1 RES     
   17734 H6         599.8779  -464.3396  -385.1682 H6            1 RES     
   17735 H6         600.5966  -465.9242  -385.3707 H6            1 RES     
   17736 H6         599.0127  -466.9371  -383.9735 H6            1 RES     
   17737 H6         600.0836  -464.2235  -382.9014 H6            1 RES     
   17738 H6         601.0129  -465.7433  -383.1093 H6            1 RES     
   17739 H6         599.6234  -466.8149  -381.3115 H6            1 RES     
   17740 H6         598.7063  -465.2792  -381.1308 H6            1 RES     
   17741 H6         600.3672  -465.3700  -379.3837 H6            1 RES     
   17742 H6         600.7192  -464.0225  -380.4917 H6            1 RES     
   17743 H6         602.7792  -465.1787  -379.7601 H6            1 RES     
   17744 H6         602.5854  -465.2567  -381.5330 H6            1 RES     
   17745 H6         601.8181  -467.6044  -381.4127 H6            1 RES     
   17746 H6         603.4210  -467.3724  -380.6425 H6            1 RES     
   17747 H6         600.7165  -467.5691  -379.1576 H6            1 RES     
   17748 H6         602.3175  -467.3671  -378.3589 H6            1 RES     
   17749 H6         601.4022  -469.6971  -378.3236 H6            1 RES     
   17750 H6         601.3861  -469.7269  -380.1241 H6            1 RES     
   17751 H6         603.9287  -469.4954  -380.1013 H6            1 RES     
   17752 H6         603.8661  -469.3732  -378.3048 H6            1 RES     
   17753 H6         602.9402  -471.6904  -378.1621 H6            1 RES     
   17754 H6         604.5530  -471.6119  -378.9570 H6            1 RES     
   17755 H6         601.8580  -471.9094  -380.4359 H6            1 RES     
   17756 H6         603.4901  -471.7702  -381.2087 H6            1 RES     
   17757 H6         603.0908  -473.1818  -380.1585 H6            1 RES     
   17758 H6         597.2558  -465.9618  -382.6817 H6            1 RES     
   17759 H6         596.8648  -465.9295  -384.3689 H6            1 RES     
   17760 H6         596.7466  -463.7615  -382.4122 H6            1 RES     
   17761 H6         598.0560  -463.3036  -383.5585 H6            1 RES     
   17762 H6         595.1422  -464.1419  -384.3112 H6            1 RES     
   17763 H6         596.5060  -463.8654  -385.3841 H6            1 RES     
   17764 H6         596.7359  -461.5452  -384.7920 H6            1 RES     
   17765 H6         595.2511  -462.0082  -385.6473 H6            1 RES     
   17766 H6         593.9335  -461.9450  -383.6344 H6            1 RES     
   17767 H6         595.3528  -461.4393  -382.6297 H6            1 RES     
   17768 H6         595.6874  -459.4185  -384.0123 H6            1 RES     
   17769 H6         594.3796  -459.8899  -385.1503 H6            1 RES     
   17770 H6         593.7026  -458.1002  -383.5916 H6            1 RES     
   17771 H6         593.9450  -459.1956  -382.1798 H6            1 RES     
   17772 H6         592.1360  -460.7169  -383.1241 H6            1 RES     
   17773 H6         591.5393  -459.0369  -382.9077 H6            1 RES     
   17774 H6         591.9856  -459.6189  -384.5532 H6            1 RES     
   17775 C0         600.1958  -465.2132  -387.8793 C0            1 RES     
   17776 C0         601.6017  -464.5028  -387.6249 C0            1 RES     
   17777 C0         602.1066  -464.0082  -389.0224 C0            1 RES     
   17778 C0         603.5705  -463.5256  -389.0694 C0            1 RES     
   17779 C0         604.0164  -463.0269  -390.4553 C0            1 RES     
   17780 C0         603.9397  -464.0597  -391.5940 C0            1 RES     
   17781 C0         604.6757  -465.3831  -391.3266 C0            1 RES     
   17782 C0         606.1716  -465.1998  -391.0155 C0            1 RES     
   17783 C0         606.8914  -466.5311  -390.7458 C0            1 RES     
   17784 C0         606.9668  -467.4340  -391.9901 C0            1 RES     
   17785 C0         607.7931  -468.7085  -391.7578 C0            1 RES     
   17786 C0         607.1644  -469.6576  -390.7375 C0            1 RES     
   17787 C0         601.8941  -463.4266  -386.4965 C0            1 RES     
   17788 C0         601.2640  -462.0054  -386.5312 C0            1 RES     
   17789 C0         600.1491  -461.8329  -385.4840 C0            1 RES     
   17790 C0         599.4225  -460.4980  -385.4764 C0            1 RES     
   17791 C0         600.1860  -459.2993  -384.9313 C0            1 RES     
   17792 C0         599.1915  -458.1221  -384.8659 C0            1 RES     
   17793 C0         599.7423  -456.8626  -384.1947 C0            1 RES     
   17794 C0         599.9921  -457.0633  -382.6993 C0            1 RES     
   17795 H6         599.7152  -464.7433  -388.7689 H6            1 RES     
   17796 H6         600.4660  -466.2089  -388.2985 H6            1 RES     
   17797 H6         602.2661  -465.3407  -387.3112 H6            1 RES     
   17798 H6         601.4508  -463.1826  -389.3739 H6            1 RES     
   17799 H6         602.0058  -464.8527  -389.7376 H6            1 RES     
   17800 H6         604.2376  -464.3422  -388.7222 H6            1 RES     
   17801 H6         603.7091  -462.6517  -388.4038 H6            1 RES     
   17802 H6         605.0640  -462.6685  -390.3644 H6            1 RES     
   17803 H6         603.4000  -462.1470  -390.7431 H6            1 RES     
   17804 H6         604.3582  -463.5878  -392.5099 H6            1 RES     
   17805 H6         602.8746  -464.2942  -391.8049 H6            1 RES     
   17806 H6         604.1889  -465.9148  -390.4813 H6            1 RES     
   17807 H6         604.5504  -466.0060  -392.2357 H6            1 RES     
   17808 H6         606.2745  -464.5885  -390.0947 H6            1 RES     
   17809 H6         606.6753  -464.6623  -391.8479 H6            1 RES     
   17810 H6         607.9296  -466.2935  -390.4269 H6            1 RES     
   17811 H6         606.3806  -467.0513  -389.9078 H6            1 RES     
   17812 H6         605.9526  -467.7269  -392.3315 H6            1 RES     
   17813 H6         607.4578  -466.8584  -392.8049 H6            1 RES     
   17814 H6         608.8207  -468.4371  -391.4319 H6            1 RES     
   17815 H6         607.8688  -469.2497  -392.7254 H6            1 RES     
   17816 H6         607.1099  -469.1917  -389.7329 H6            1 RES     
   17817 H6         606.1441  -469.9514  -391.0642 H6            1 RES     
   17818 H6         607.7876  -470.5729  -390.6561 H6            1 RES     
   17819 H6         602.9862  -463.2622  -386.5446 H6            1 RES     
   17820 H6         601.8680  -463.8482  -385.4742 H6            1 RES     
   17821 H6         602.0479  -461.2803  -386.2198 H6            1 RES     
   17822 H6         600.9512  -461.7350  -387.5601 H6            1 RES     
   17823 H6         600.5398  -462.0568  -384.4654 H6            1 RES     
   17824 H6         599.3420  -462.5266  -385.6912 H6            1 RES     
   17825 H6         599.0084  -460.2871  -386.4863 H6            1 RES     
   17826 H6         598.5907  -460.6349  -384.7659 H6            1 RES     
   17827 H6         600.5476  -459.5617  -383.9146 H6            1 RES     
   17828 H6         601.0544  -459.0493  -385.5757 H6            1 RES     
   17829 H6         598.8870  -457.8705  -385.9057 H6            1 RES     
   17830 H6         598.2734  -458.4224  -384.3102 H6            1 RES     
   17831 H6         598.9713  -456.0680  -384.2999 H6            1 RES     
   17832 H6         600.6668  -456.5301  -384.7070 H6            1 RES     
   17833 H6         600.7836  -457.8175  -382.5182 H6            1 RES     
   17834 H6         600.3187  -456.1029  -382.2504 H6            1 RES     
   17835 H6         599.0567  -457.3878  -382.1927 H6            1 RES     
   17836 C0         598.7007  -478.4790  -386.9241 C0            1 RES     
   17837 C1         598.0214  -477.1159  -387.1821 C1            1 RES     
   17838 C1         596.9265  -477.2262  -387.9784 C1            1 RES     
   17839 S2         596.2200  -475.7555  -388.3531 S2            1 RES     
   17840 C1         597.3986  -474.8923  -387.4832 C1            1 RES     
   17841 C1         598.3282  -475.7710  -386.9163 C1            1 RES     
   17842 C1         596.7707  -478.5782  -388.3533 C1            1 RES     
   17843 C1         597.8039  -479.3048  -387.8477 C1            1 RES     
   17844 C1         597.7939  -480.6201  -388.2960 C1            1 RES     
   17845 C1         596.6862  -480.8504  -389.1292 C1            1 RES     
   17846 S2         595.7428  -479.4523  -389.3258 S2            1 RES     
   17847 H3         599.1931  -475.4123  -386.3914 H3            1 RES     
   17848 H3         598.5415  -481.3617  -388.0409 H3            1 RES     
   17849 N4         594.9993  -483.9864  -390.2996 N4            1 RES     
   17850 C1         595.2730  -482.8638  -389.5724 C1            1 RES     
   17851 C1         596.4013  -482.0779  -389.8639 C1            1 RES     
   17852 C1         597.2164  -482.4655  -390.9289 C1            1 RES     
   17853 N4         598.3008  -481.7658  -391.3508 N4            1 RES     
   17854 S2         598.8076  -482.6539  -392.6493 S2            1 RES     
   17855 N4         597.7243  -483.9028  -392.7209 N4            1 RES     
   17856 C1         596.8997  -483.6245  -391.6811 C1            1 RES     
   17857 C1         595.7856  -484.3861  -391.3383 C1            1 RES     
   17858 H5         594.6134  -482.5848  -388.7552 H5            1 RES     
   17859 C0         598.6503  -479.1104  -385.4883 C0            1 RES     
   17860 C0         597.4480  -479.7535  -384.6992 C0            1 RES     
   17861 C0         598.0206  -480.0771  -383.2745 C0            1 RES     
   17862 C0         597.0788  -480.7883  -382.2949 C0            1 RES     
   17863 C0         597.7311  -481.0093  -380.9098 C0            1 RES     
   17864 C0         598.9823  -481.9149  -380.8923 C0            1 RES     
   17865 C0         598.7810  -483.3101  -381.5096 C0            1 RES     
   17866 C0         597.6518  -484.1103  -380.8363 C0            1 RES     
   17867 C0         597.4158  -485.4793  -381.4902 C0            1 RES     
   17868 C0         598.5908  -486.4529  -381.2979 C0            1 RES     
   17869 C0         598.2975  -487.8547  -381.8559 C0            1 RES     
   17870 C0         598.1344  -487.8760  -383.3761 C0            1 RES     
   17871 C0         596.0806  -478.9985  -384.6246 C0            1 RES     
   17872 C0         596.0046  -477.6307  -383.8790 C0            1 RES     
   17873 C0         595.5263  -476.5567  -384.8607 C0            1 RES     
   17874 C0         595.6847  -475.0939  -384.4557 C0            1 RES     
   17875 C0         594.6371  -474.5382  -383.5022 C0            1 RES     
   17876 C0         594.9587  -473.0472  -383.2680 C0            1 RES     
   17877 C0         593.8881  -472.2884  -382.4804 C0            1 RES     
   17878 C0         592.5872  -472.1328  -383.2708 C0            1 RES     
   17879 H6         599.0269  -478.3733  -384.8260 H6            1 RES     
   17880 H6         599.3969  -479.9355  -385.5269 H6            1 RES     
   17881 H6         597.2102  -480.7133  -385.2098 H6            1 RES     
   17882 H6         598.3468  -479.1322  -382.7873 H6            1 RES     
   17883 H6         598.9213  -480.7136  -383.4084 H6            1 RES     
   17884 H6         596.7380  -481.7518  -382.7253 H6            1 RES     
   17885 H6         596.1886  -480.1518  -382.1172 H6            1 RES     
   17886 H6         596.9657  -481.4427  -380.2334 H6            1 RES     
   17887 H6         598.0133  -480.0246  -380.4757 H6            1 RES     
   17888 H6         599.3090  -482.0310  -379.8348 H6            1 RES     
   17889 H6         599.8144  -481.4144  -381.4321 H6            1 RES     
   17890 H6         598.5621  -483.2030  -382.5930 H6            1 RES     
   17891 H6         599.7422  -483.8560  -381.4110 H6            1 RES     
   17892 H6         596.7016  -483.5486  -380.9440 H6            1 RES     
   17893 H6         597.8622  -484.2368  -379.7517 H6            1 RES     
   17894 H6         596.5150  -485.9264  -381.0160 H6            1 RES     
   17895 H6         597.2005  -485.3238  -382.5682 H6            1 RES     
   17896 H6         599.5127  -486.0631  -381.7771 H6            1 RES     
   17897 H6         598.7790  -486.5558  -380.2069 H6            1 RES     
   17898 H6         597.3831  -488.2676  -381.3766 H6            1 RES     
   17899 H6         599.1521  -488.5158  -381.5955 H6            1 RES     
   17900 H6         597.2606  -487.2742  -383.6977 H6            1 RES     
   17901 H6         599.0517  -487.4846  -383.8652 H6            1 RES     
   17902 H6         597.9704  -488.9208  -383.7134 H6            1 RES     
   17903 H6         595.3511  -479.6738  -384.1284 H6            1 RES     
   17904 H6         595.6712  -478.9192  -385.6545 H6            1 RES     
   17905 H6         595.2782  -477.6797  -383.0369 H6            1 RES     
   17906 H6         596.9983  -477.3675  -383.4632 H6            1 RES     
   17907 H6         594.5067  -476.7639  -385.2485 H6            1 RES     
   17908 H6         596.2065  -476.6537  -385.6801 H6            1 RES     
   17909 H6         596.6935  -474.9384  -384.0654 H6            1 RES     
   17910 H6         595.6010  -474.4986  -385.3934 H6            1 RES     
   17911 H6         593.6489  -474.6573  -383.9948 H6            1 RES     
   17912 H6         594.6338  -475.0878  -382.5373 H6            1 RES     
   17913 H6         595.9227  -472.9867  -382.7138 H6            1 RES     
   17914 H6         595.0972  -472.5213  -384.2400 H6            1 RES     
   17915 H6         594.2778  -471.2662  -382.2794 H6            1 RES     
   17916 H6         593.6975  -472.7894  -381.5081 H6            1 RES     
   17917 H6         592.1161  -473.1143  -383.4758 H6            1 RES     
   17918 H6         591.8707  -471.5193  -382.6878 H6            1 RES     
   17919 H6         592.7859  -471.6166  -384.2366 H6            1 RES     
   17920 C0         600.1809  -478.3071  -387.4486 C0            1 RES     
   17921 C0         601.4936  -478.2964  -386.5415 C0            1 RES     
   17922 C0         602.6022  -477.5710  -387.3764 C0            1 RES     
   17923 C0         604.0344  -477.6741  -386.8142 C0            1 RES     
   17924 C0         605.0868  -476.9275  -387.6528 C0            1 RES     
   17925 C0         605.2364  -477.3978  -389.1107 C0            1 RES     
   17926 C0         605.4953  -478.9032  -389.2885 C0            1 RES     
   17927 C0         606.7492  -479.4004  -388.5479 C0            1 RES     
   17928 C0         606.9910  -480.9074  -388.7315 C0            1 RES     
   17929 C0         607.3465  -481.2847  -390.1807 C0            1 RES     
   17930 C0         607.7106  -482.7688  -390.3425 C0            1 RES     
   17931 C0         606.5388  -483.7112  -390.0672 C0            1 RES     
   17932 C0         601.5503  -477.8640  -385.0161 C0            1 RES     
   17933 C0         601.3162  -476.3935  -384.5681 C0            1 RES     
   17934 C0         599.9483  -476.1981  -383.8899 C0            1 RES     
   17935 C0         599.5924  -474.7814  -383.4701 C0            1 RES     
   17936 C0         600.3257  -474.2140  -382.2629 C0            1 RES     
   17937 C0         599.6731  -472.8554  -381.9355 C0            1 RES     
   17938 C0         600.1804  -472.2012  -380.6491 C0            1 RES     
   17939 C0         599.7722  -472.9832  -379.3997 C0            1 RES     
   17940 H6         600.2051  -477.4176  -388.1203 H6            1 RES     
   17941 H6         600.3660  -479.1212  -388.1854 H6            1 RES     
   17942 H6         601.7780  -479.3722  -386.4789 H6            1 RES     
   17943 H6         602.3376  -476.4960  -387.4746 H6            1 RES     
   17944 H6         602.6057  -478.0163  -388.3945 H6            1 RES     
   17945 H6         604.3128  -478.7440  -386.7126 H6            1 RES     
   17946 H6         604.0907  -477.2002  -385.8151 H6            1 RES     
   17947 H6         606.0657  -477.0331  -387.1383 H6            1 RES     
   17948 H6         604.8444  -475.8420  -387.6617 H6            1 RES     
   17949 H6         606.0738  -476.8269  -389.5681 H6            1 RES     
   17950 H6         604.3162  -477.1373  -389.6760 H6            1 RES     
   17951 H6         604.6112  -479.4764  -388.9363 H6            1 RES     
   17952 H6         605.6021  -479.0810  -390.3780 H6            1 RES     
   17953 H6         606.6152  -479.2284  -387.4595 H6            1 RES     
   17954 H6         607.6446  -478.8328  -388.8820 H6            1 RES     
   17955 H6         607.8454  -481.1928  -388.0798 H6            1 RES     
   17956 H6         606.0909  -481.4594  -388.3866 H6            1 RES     
   17957 H6         606.5102  -481.0482  -390.8704 H6            1 RES     
   17958 H6         608.2321  -480.6857  -390.4860 H6            1 RES     
   17959 H6         608.5603  -483.0235  -389.6724 H6            1 RES     
   17960 H6         608.0380  -482.9295  -391.3923 H6            1 RES     
   17961 H6         606.1992  -483.6360  -389.0145 H6            1 RES     
   17962 H6         605.6911  -483.4782  -390.7463 H6            1 RES     
   17963 H6         606.8604  -484.7583  -390.2485 H6            1 RES     
   17964 H6         602.5805  -478.1055  -384.6962 H6            1 RES     
   17965 H6         601.0325  -478.5722  -384.3423 H6            1 RES     
   17966 H6         602.0545  -476.1620  -383.7689 H6            1 RES     
   17967 H6         601.5007  -475.6896  -385.4047 H6            1 RES     
   17968 H6         599.8479  -476.8868  -383.0205 H6            1 RES     
   17969 H6         599.1554  -476.4301  -384.5921 H6            1 RES     
   17970 H6         599.6657  -474.0983  -384.3442 H6            1 RES     
   17971 H6         598.5407  -474.8406  -383.1447 H6            1 RES     
   17972 H6         600.1915  -474.9248  -381.4202 H6            1 RES     
   17973 H6         601.4092  -474.0935  -382.4712 H6            1 RES     
   17974 H6         599.8649  -472.1670  -382.7878 H6            1 RES     
   17975 H6         598.5688  -472.9705  -381.8386 H6            1 RES     
   17976 H6         599.7094  -471.1960  -380.5815 H6            1 RES     
   17977 H6         601.2805  -472.0756  -380.6927 H6            1 RES     
   17978 H6         600.2406  -473.9873  -379.3789 H6            1 RES     
   17979 H6         600.1004  -472.4284  -378.4969 H6            1 RES     
   17980 H6         598.6665  -473.0960  -379.3601 H6            1 RES     
   17981 C0         595.5323  -489.5492  -393.0283 C0            1 RES     
   17982 C1         595.3292  -488.0337  -392.8098 C1            1 RES     
   17983 C1         594.6397  -487.4525  -393.8256 C1            1 RES     
   17984 S2         594.4819  -485.7936  -393.6650 S2            1 RES     
   17985 C1         595.3839  -485.7805  -392.2238 C1            1 RES     
   17986 C1         595.7967  -487.0761  -391.8942 C1            1 RES     
   17987 C1         594.3482  -488.4337  -394.7977 C1            1 RES     
   17988 C1         594.9112  -489.6147  -394.4244 C1            1 RES     
   17989 C1         594.7867  -490.5923  -395.4042 C1            1 RES     
   17990 C1         594.0738  -490.0974  -396.5092 C1            1 RES     
   17991 S2         593.6184  -488.4760  -396.2918 S2            1 RES     
   17992 H3         596.4424  -487.2646  -391.0577 H3            1 RES     
   17993 H3         595.1897  -491.5950  -395.3261 H3            1 RES     
   17994 N4         592.3323  -491.7837  -399.3681 N4            1 RES     
   17995 C1         592.5400  -491.1656  -398.1686 C1            1 RES     
   17996 C1         593.8358  -490.7992  -397.7655 C1            1 RES     
   17997 C1         594.8954  -491.0645  -398.6348 C1            1 RES     
   17998 N4         596.1840  -490.7115  -398.3933 N4            1 RES     
   17999 S2         596.9492  -491.2154  -399.7690 S2            1 RES     
   18000 N4         595.7335  -491.8725  -400.6792 N4            1 RES     
   18001 C1         594.6510  -491.6896  -399.8833 C1            1 RES     
   18002 C1         593.3532  -492.0578  -400.2280 C1            1 RES     
   18003 H5         591.6924  -490.9655  -397.5189 H5            1 RES     
   18004 C0         594.7841  -490.5726  -392.1034 C0            1 RES     
   18005 C0         593.2586  -490.9605  -392.0372 C0            1 RES     
   18006 C0         593.1391  -491.9424  -390.8190 C0            1 RES     
   18007 C0         591.7564  -492.5505  -390.5529 C0            1 RES     
   18008 C0         591.7463  -493.4593  -389.3012 C0            1 RES     
   18009 C0         592.6558  -494.7061  -389.3677 C0            1 RES     
   18010 C0         592.4091  -495.6241  -390.5779 C0            1 RES     
   18011 C0         590.9596  -496.1344  -390.6623 C0            1 RES     
   18012 C0         590.7022  -497.0045  -391.9009 C0            1 RES     
   18013 C0         591.4600  -498.3425  -391.8692 C0            1 RES     
   18014 C0         591.1065  -499.2531  -393.0559 C0            1 RES     
   18015 C0         591.5527  -498.6861  -394.4041 C0            1 RES     
   18016 C0         592.1759  -489.8332  -391.9908 C0            1 RES     
   18017 C0         592.1185  -488.8815  -390.7564 C0            1 RES     
   18018 C0         592.3148  -487.4391  -391.2327 C0            1 RES     
   18019 C0         592.6214  -486.3735  -390.1842 C0            1 RES     
   18020 C0         591.4351  -485.8394  -389.3949 C0            1 RES     
   18021 C0         591.9606  -484.7502  -388.4363 C0            1 RES     
   18022 C0         590.8640  -483.9748  -387.7026 C0            1 RES     
   18023 C0         590.0472  -483.0905  -388.6472 C0            1 RES     
   18024 H6         595.0237  -490.3029  -391.1066 H6            1 RES     
   18025 H6         595.2829  -491.5456  -392.3138 H6            1 RES     
   18026 H6         593.0341  -491.5260  -392.9690 H6            1 RES     
   18027 H6         593.4485  -491.4142  -389.8907 H6            1 RES     
   18028 H6         593.8547  -492.7760  -390.9848 H6            1 RES     
   18029 H6         591.4076  -493.1092  -391.4451 H6            1 RES     
   18030 H6         591.0330  -491.7359  -390.3470 H6            1 RES     
   18031 H6         590.7016  -493.7872  -389.1215 H6            1 RES     
   18032 H6         592.0460  -492.8621  -388.4117 H6            1 RES     
   18033 H6         592.5067  -495.2917  -388.4332 H6            1 RES     
   18034 H6         593.7213  -494.3919  -389.3831 H6            1 RES     
   18035 H6         592.6625  -495.0768  -391.5103 H6            1 RES     
   18036 H6         593.1076  -496.4819  -390.4887 H6            1 RES     
   18037 H6         590.2780  -495.2639  -390.7492 H6            1 RES     
   18038 H6         590.6938  -496.6958  -389.7399 H6            1 RES     
   18039 H6         589.6129  -497.2247  -391.9353 H6            1 RES     
   18040 H6         590.9675  -496.4185  -392.8059 H6            1 RES     
   18041 H6         592.5573  -498.1779  -391.8594 H6            1 RES     
   18042 H6         591.1771  -498.8775  -390.9365 H6            1 RES     
   18043 H6         590.0106  -499.4405  -393.0741 H6            1 RES     
   18044 H6         591.6208  -500.2273  -392.9089 H6            1 RES     
   18045 H6         591.0321  -497.7349  -394.6352 H6            1 RES     
   18046 H6         592.6502  -498.5149  -394.4032 H6            1 RES     
   18047 H6         591.3071  -499.4120  -395.2073 H6            1 RES     
   18048 H6         591.1804  -490.3208  -392.0647 H6            1 RES     
   18049 H6         592.2321  -489.2586  -392.9401 H6            1 RES     
   18050 H6         591.1288  -488.9490  -390.2513 H6            1 RES     
   18051 H6         592.9009  -489.1620  -390.0222 H6            1 RES     
   18052 H6         591.5108  -487.1105  -391.9245 H6            1 RES     
   18053 H6         593.2219  -487.4888  -391.7965 H6            1 RES     
   18054 H6         593.4031  -486.7437  -389.5165 H6            1 RES     
   18055 H6         593.0464  -485.5044  -390.7361 H6            1 RES     
   18056 H6         590.7198  -485.4099  -390.1279 H6            1 RES     
   18057 H6         590.9317  -486.6466  -388.8220 H6            1 RES     
   18058 H6         592.6172  -485.2428  -387.6837 H6            1 RES     
   18059 H6         592.5822  -484.0106  -388.9906 H6            1 RES     
   18060 H6         591.3595  -483.3041  -386.9666 H6            1 RES     
   18061 H6         590.2013  -484.6740  -387.1505 H6            1 RES     
   18062 H6         589.4897  -483.6949  -389.3895 H6            1 RES     
   18063 H6         589.3148  -482.4996  -388.0607 H6            1 RES     
   18064 H6         590.7179  -482.3834  -389.1847 H6            1 RES     
   18065 C0         597.0976  -489.7617  -393.0093 C0            1 RES     
   18066 C0         597.9159  -490.5470  -391.8869 C0            1 RES     
   18067 C0         599.3940  -490.0378  -391.9795 C0            1 RES     
   18068 C0         600.4291  -490.8460  -391.1712 C0            1 RES     
   18069 C0         601.8630  -490.2966  -391.2721 C0            1 RES     
   18070 C0         602.4643  -490.2537  -392.6883 C0            1 RES     
   18071 C0         602.4318  -491.5874  -393.4529 C0            1 RES     
   18072 C0         603.1504  -492.7324  -392.7177 C0            1 RES     
   18073 C0         603.1044  -494.0594  -393.4925 C0            1 RES     
   18074 C0         603.9068  -494.0144  -394.8052 C0            1 RES     
   18075 C0         603.9666  -495.3739  -395.5190 C0            1 RES     
   18076 C0         602.6036  -495.8538  -396.0181 C0            1 RES     
   18077 C0         597.4638  -490.7216  -390.3762 C0            1 RES     
   18078 C0         597.4049  -489.5205  -389.3904 C0            1 RES     
   18079 C0         595.9609  -489.0850  -389.0829 C0            1 RES     
   18080 C0         595.7923  -487.8760  -388.1776 C0            1 RES     
   18081 C0         596.0989  -488.0719  -386.6995 C0            1 RES     
   18082 C0         595.6889  -486.7724  -385.9770 C0            1 RES     
   18083 C0         595.7820  -486.8379  -384.4515 C0            1 RES     
   18084 C0         594.7541  -487.7959  -383.8475 C0            1 RES     
   18085 H6         597.5798  -488.7699  -393.1730 H6            1 RES     
   18086 H6         597.3716  -490.2780  -393.9571 H6            1 RES     
   18087 H6         597.9069  -491.6021  -392.2456 H6            1 RES     
   18088 H6         599.4344  -488.9783  -391.6462 H6            1 RES     
   18089 H6         599.6979  -490.0717  -393.0478 H6            1 RES     
   18090 H6         600.4007  -491.9074  -391.4956 H6            1 RES     
   18091 H6         600.1923  -490.8026  -390.0904 H6            1 RES     
   18092 H6         602.5117  -490.9244  -390.6245 H6            1 RES     
   18093 H6         601.8906  -489.2671  -390.8522 H6            1 RES     
   18094 H6         603.5179  -489.9091  -392.6002 H6            1 RES     
   18095 H6         601.9225  -489.4960  -393.2937 H6            1 RES     
   18096 H6         601.3773  -491.8805  -393.6440 H6            1 RES     
   18097 H6         602.9152  -491.4035  -394.4340 H6            1 RES     
   18098 H6         602.6418  -492.9111  -391.7473 H6            1 RES     
   18099 H6         604.2066  -492.4546  -392.5108 H6            1 RES     
   18100 H6         603.5482  -494.8442  -392.8420 H6            1 RES     
   18101 H6         602.0433  -494.3257  -393.6844 H6            1 RES     
   18102 H6         603.4832  -493.2653  -395.5054 H6            1 RES     
   18103 H6         604.9499  -493.7158  -394.5621 H6            1 RES     
   18104 H6         604.4057  -496.1369  -394.8402 H6            1 RES     
   18105 H6         604.6352  -495.2697  -396.4006 H6            1 RES     
   18106 H6         601.9041  -496.0285  -395.1760 H6            1 RES     
   18107 H6         602.1649  -495.1072  -396.7139 H6            1 RES     
   18108 H6         602.7299  -496.8135  -396.5620 H6            1 RES     
   18109 H6         598.2045  -491.4183  -389.9426 H6            1 RES     
   18110 H6         596.5803  -491.3767  -390.2582 H6            1 RES     
   18111 H6         597.8017  -489.8673  -388.4109 H6            1 RES     
   18112 H6         598.0538  -488.6907  -389.7367 H6            1 RES     
   18113 H6         595.3775  -489.9438  -388.6798 H6            1 RES     
   18114 H6         595.4771  -488.7522  -389.9944 H6            1 RES     
   18115 H6         596.3520  -487.0106  -388.5943 H6            1 RES     
   18116 H6         594.7126  -487.6544  -388.2028 H6            1 RES     
   18117 H6         595.4910  -488.9281  -386.3380 H6            1 RES     
   18118 H6         597.1747  -488.2927  -386.5382 H6            1 RES     
   18119 H6         596.3471  -485.9533  -386.3416 H6            1 RES     
   18120 H6         594.6396  -486.5008  -386.2362 H6            1 RES     
   18121 H6         595.5577  -485.8204  -384.0626 H6            1 RES     
   18122 H6         596.8090  -487.1173  -384.1433 H6            1 RES     
   18123 H6         594.9416  -488.8420  -384.1611 H6            1 RES     
   18124 H6         594.8158  -487.7490  -382.7409 H6            1 RES     
   18125 H6         593.7265  -487.5019  -384.1548 H6            1 RES     
   18126 C0         592.6464  -495.8409  -404.0708 C0            1 RES     
   18127 C1         592.7150  -494.5328  -403.2522 C1            1 RES     
   18128 C1         592.6268  -493.4269  -404.0360 C1            1 RES     
   18129 S2         592.7905  -491.9917  -403.1900 S2            1 RES     
   18130 C1         593.0332  -492.8091  -401.7190 C1            1 RES     
   18131 C1         592.9853  -494.1935  -401.9160 C1            1 RES     
   18132 C1         592.5306  -493.8317  -405.3849 C1            1 RES     
   18133 C1         592.6251  -495.1872  -405.4533 C1            1 RES     
   18134 C1         592.6819  -495.6474  -406.7634 C1            1 RES     
   18135 C1         592.5886  -494.5765  -407.6683 C1            1 RES     
   18136 S2         592.4561  -493.0842  -406.8689 S2            1 RES     
   18137 H3         593.1917  -494.8821  -401.1188 H3            1 RES     
   18138 H3         592.7888  -496.6881  -407.0448 H3            1 RES     
   18139 N4         591.7821  -494.4067  -411.3249 N4            1 RES     
   18140 C1         591.6338  -494.3637  -409.9684 C1            1 RES     
   18141 C1         592.7136  -494.6613  -409.1191 C1            1 RES     
   18142 C1         593.9419  -494.9781  -409.7021 C1            1 RES     
   18143 N4         595.0757  -495.2287  -408.9985 N4            1 RES     
   18144 S2         596.1870  -495.4687  -410.1982 S2            1 RES     
   18145 N4         595.3132  -495.2763  -411.5903 N4            1 RES     
   18146 C1         594.0751  -494.9968  -411.1131 C1            1 RES     
   18147 C1         592.9702  -494.7203  -411.9140 C1            1 RES     
   18148 H5         590.6665  -494.1049  -409.5464 H5            1 RES     
   18149 C0         591.3887  -496.7706  -403.9418 C0            1 RES     
   18150 C0         589.9150  -496.5697  -404.4610 C0            1 RES     
   18151 C0         589.1127  -497.7954  -403.8983 C0            1 RES     
   18152 C0         587.6392  -497.9061  -404.3093 C0            1 RES     
   18153 C0         586.9377  -499.1203  -403.6563 C0            1 RES     
   18154 C0         587.4995  -500.5074  -404.0384 C0            1 RES     
   18155 C0         587.5508  -500.7917  -405.5500 C0            1 RES     
   18156 C0         586.1769  -500.6723  -406.2330 C0            1 RES     
   18157 C0         586.2402  -500.9014  -407.7499 C0            1 RES     
   18158 C0         586.6078  -502.3458  -408.1295 C0            1 RES     
   18159 C0         586.5562  -502.5926  -409.6456 C0            1 RES     
   18160 C0         587.6092  -501.8001  -410.4212 C0            1 RES     
   18161 C0         589.1800  -495.2153  -404.1955 C0            1 RES     
   18162 C0         588.8552  -494.7990  -402.7279 C0            1 RES     
   18163 C0         589.5369  -493.4601  -402.4298 C0            1 RES     
   18164 C0         589.6353  -493.0145  -400.9736 C0            1 RES     
   18165 C0         588.3849  -492.3914  -400.3704 C0            1 RES     
   18166 C0         588.7192  -491.9744  -398.9227 C0            1 RES     
   18167 C0         587.6241  -491.1566  -398.2342 C0            1 RES     
   18168 C0         587.4616  -489.7669  -398.8536 C0            1 RES     
   18169 H6         591.2713  -496.9700  -402.9073 H6            1 RES     
   18170 H6         591.7010  -497.7211  -404.4304 H6            1 RES     
   18171 H6         589.9549  -496.6538  -405.5700 H6            1 RES     
   18172 H6         589.1418  -497.7733  -402.7869 H6            1 RES     
   18173 H6         589.6319  -498.7203  -404.2290 H6            1 RES     
   18174 H6         587.5541  -497.9524  -405.4141 H6            1 RES     
   18175 H6         587.0931  -497.0086  -403.9551 H6            1 RES     
   18176 H6         585.8619  -499.0829  -403.9255 H6            1 RES     
   18177 H6         586.9886  -499.0217  -402.5493 H6            1 RES     
   18178 H6         586.8700  -501.2818  -403.5459 H6            1 RES     
   18179 H6         588.5264  -500.6211  -403.6298 H6            1 RES     
   18180 H6         588.2641  -500.0893  -406.0305 H6            1 RES     
   18181 H6         587.9493  -501.8195  -405.6787 H6            1 RES     
   18182 H6         585.7953  -499.6405  -406.0921 H6            1 RES     
   18183 H6         585.4532  -501.3788  -405.7705 H6            1 RES     
   18184 H6         585.2325  -500.6806  -408.1646 H6            1 RES     
   18185 H6         586.9620  -500.1795  -408.1866 H6            1 RES     
   18186 H6         587.6201  -502.6090  -407.7587 H6            1 RES     
   18187 H6         585.8708  -503.0268  -407.6507 H6            1 RES     
   18188 H6         585.5435  -502.3467  -410.0334 H6            1 RES     
   18189 H6         586.7418  -503.6734  -409.8261 H6            1 RES     
   18190 H6         587.4458  -500.7078  -410.3243 H6            1 RES     
   18191 H6         588.6265  -502.0546  -410.0551 H6            1 RES     
   18192 H6         587.5443  -502.0595  -411.4986 H6            1 RES     
   18193 H6         588.2122  -495.2462  -404.7403 H6            1 RES     
   18194 H6         589.7299  -494.4113  -404.7299 H6            1 RES     
   18195 H6         587.7586  -494.6693  -402.5875 H6            1 RES     
   18196 H6         589.2034  -495.5817  -402.0237 H6            1 RES     
   18197 H6         589.1634  -492.6425  -403.0817 H6            1 RES     
   18198 H6         590.5570  -493.6405  -402.6948 H6            1 RES     
   18199 H6         589.9892  -493.8516  -400.3668 H6            1 RES     
   18200 H6         590.4238  -492.2286  -400.9393 H6            1 RES     
   18201 H6         588.1291  -491.5049  -400.9885 H6            1 RES     
   18202 H6         587.5319  -493.1024  -400.3793 H6            1 RES     
   18203 H6         588.9009  -492.9007  -398.3318 H6            1 RES     
   18204 H6         589.6555  -491.3716  -398.8975 H6            1 RES     
   18205 H6         587.9263  -491.0131  -397.1734 H6            1 RES     
   18206 H6         586.6610  -491.7087  -398.2538 H6            1 RES     
   18207 H6         587.1212  -489.8280  -399.9060 H6            1 RES     
   18208 H6         586.7085  -489.1909  -398.2785 H6            1 RES     
   18209 H6         588.4279  -489.2159  -398.8159 H6            1 RES     
   18210 C0         593.9892  -496.6044  -403.7400 C0            1 RES     
   18211 C0         594.1053  -497.9707  -402.9240 C0            1 RES     
   18212 C0         595.5739  -498.0403  -402.3848 C0            1 RES     
   18213 C0         596.0018  -499.3972  -401.7899 C0            1 RES     
   18214 C0         597.4432  -499.4130  -401.2512 C0            1 RES     
   18215 C0         598.5452  -499.1066  -402.2810 C0            1 RES     
   18216 C0         598.5206  -499.9824  -403.5447 C0            1 RES     
   18217 C0         598.6200  -501.4890  -403.2476 C0            1 RES     
   18218 C0         598.5890  -502.3505  -404.5204 C0            1 RES     
   18219 C0         599.8304  -502.1518  -405.4084 C0            1 RES     
   18220 C0         599.8626  -503.1013  -406.6162 C0            1 RES     
   18221 C0         598.7354  -502.8440  -407.6163 C0            1 RES     
   18222 C0         593.0703  -498.4782  -401.8340 C0            1 RES     
   18223 C0         592.8969  -497.7599  -400.4658 C0            1 RES     
   18224 C0         591.5837  -496.9611  -400.3855 C0            1 RES     
   18225 C0         591.3458  -496.1679  -399.1111 C0            1 RES     
   18226 C0         590.9962  -496.9606  -397.8595 C0            1 RES     
   18227 C0         590.6345  -495.9375  -396.7633 C0            1 RES     
   18228 C0         590.1046  -496.5557  -395.4682 C0            1 RES     
   18229 C0         588.7377  -497.2155  -395.6565 C0            1 RES     
   18230 H6         594.7036  -495.8677  -403.3044 H6            1 RES     
   18231 H6         594.4912  -496.8232  -404.7096 H6            1 RES     
   18232 H6         594.0042  -498.7549  -403.7094 H6            1 RES     
   18233 H6         595.7140  -497.2551  -401.6108 H6            1 RES     
   18234 H6         596.2569  -497.8116  -403.2310 H6            1 RES     
   18235 H6         595.8686  -500.1915  -402.5540 H6            1 RES     
   18236 H6         595.3759  -499.6466  -400.9112 H6            1 RES     
   18237 H6         597.6291  -500.4169  -400.8130 H6            1 RES     
   18238 H6         597.5311  -498.6790  -400.4202 H6            1 RES     
   18239 H6         599.5276  -499.2254  -401.7736 H6            1 RES     
   18240 H6         598.4669  -498.0443  -402.5964 H6            1 RES     
   18241 H6         597.5893  -499.7832  -404.1168 H6            1 RES     
   18242 H6         599.3779  -499.6615  -404.1709 H6            1 RES     
   18243 H6         597.7457  -501.7925  -402.6347 H6            1 RES     
   18244 H6         599.5433  -501.7075  -402.6684 H6            1 RES     
   18245 H6         598.5560  -503.4160  -404.2045 H6            1 RES     
   18246 H6         597.6580  -502.1255  -405.0828 H6            1 RES     
   18247 H6         599.8929  -501.1074  -405.7774 H6            1 RES     
   18248 H6         600.7323  -502.3601  -404.7924 H6            1 RES     
   18249 H6         599.8192  -504.1560  -406.2675 H6            1 RES     
   18250 H6         600.8285  -502.9514  -407.1451 H6            1 RES     
   18251 H6         597.7417  -503.0298  -407.1610 H6            1 RES     
   18252 H6         598.7821  -501.7977  -407.9866 H6            1 RES     
   18253 H6         598.8489  -503.5312  -408.4809 H6            1 RES     
   18254 H6         593.4069  -499.5014  -401.5852 H6            1 RES     
   18255 H6         592.0900  -498.7612  -402.2615 H6            1 RES     
   18256 H6         592.7900  -498.5436  -399.6837 H6            1 RES     
   18257 H6         593.7959  -497.1611  -400.2153 H6            1 RES     
   18258 H6         590.7144  -497.6285  -400.5835 H6            1 RES     
   18259 H6         591.5832  -496.1811  -401.1387 H6            1 RES     
   18260 H6         592.2007  -495.4813  -398.9279 H6            1 RES     
   18261 H6         590.4410  -495.5722  -399.3156 H6            1 RES     
   18262 H6         590.1219  -497.6024  -398.0982 H6            1 RES     
   18263 H6         591.8443  -497.6011  -397.5397 H6            1 RES     
   18264 H6         591.5467  -495.3450  -396.5308 H6            1 RES     
   18265 H6         589.8597  -495.2289  -397.1366 H6            1 RES     
   18266 H6         589.9772  -495.7290  -394.7353 H6            1 RES     
   18267 H6         590.8386  -497.2799  -395.0625 H6            1 RES     
   18268 H6         588.7964  -498.0795  -396.3479 H6            1 RES     
   18269 H6         588.3690  -497.5802  -394.6759 H6            1 RES     
   18270 H6         588.0061  -496.4788  -396.0551 H6            1 RES     
   18271 C0         593.0088  -496.4006  -417.0864 C0            1 RES     
   18272 C1         593.0387  -495.5789  -415.7788 C1            1 RES     
   18273 C1         593.5126  -494.3202  -415.9697 C1            1 RES     
   18274 S2         593.6447  -493.4328  -414.5564 S2            1 RES     
   18275 C1         593.1031  -494.7365  -413.6087 C1            1 RES     
   18276 C1         592.8309  -495.8467  -414.4155 C1            1 RES     
   18277 C1         593.8663  -494.1682  -417.3278 C1            1 RES     
   18278 C1         593.6772  -495.3501  -417.9746 C1            1 RES     
   18279 C1         594.1399  -495.3155  -419.2845 C1            1 RES     
   18280 C1         594.6490  -494.0434  -419.5958 C1            1 RES     
   18281 S2         594.5476  -492.9821  -418.2741 S2            1 RES     
   18282 H3         592.5498  -496.7929  -413.9934 H3            1 RES     
   18283 H3         594.1152  -496.1564  -419.9672 H3            1 RES     
   18284 N4         595.4014  -492.3369  -422.8473 N4            1 RES     
   18285 C1         594.7463  -492.7145  -421.7105 C1            1 RES     
   18286 C1         595.3111  -493.6608  -420.8380 C1            1 RES     
   18287 C1         596.5661  -494.1829  -421.1559 C1            1 RES     
   18288 N4         597.2467  -495.0580  -420.3721 N4            1 RES     
   18289 S2         598.6563  -495.2576  -421.2118 S2            1 RES     
   18290 N4         598.4652  -494.2900  -422.5405 N4            1 RES     
   18291 C1         597.2346  -493.7599  -422.3322 C1            1 RES     
   18292 C1         596.6237  -492.8394  -423.1796 C1            1 RES     
   18293 H5         593.7746  -492.2824  -421.4875 H5            1 RES     
   18294 C0         591.6295  -496.7876  -417.7270 C0            1 RES     
   18295 C0         590.5621  -495.8946  -418.4653 C0            1 RES     
   18296 C0         589.3536  -496.8540  -418.7506 C0            1 RES     
   18297 C0         588.1749  -496.2678  -419.5376 C0            1 RES     
   18298 C0         587.0234  -497.2854  -419.7144 C0            1 RES     
   18299 C0         587.3675  -498.5574  -420.5203 C0            1 RES     
   18300 C0         587.9434  -498.2991  -421.9238 C0            1 RES     
   18301 C0         587.0113  -497.4565  -422.8124 C0            1 RES     
   18302 C0         587.6124  -497.1531  -424.1924 C0            1 RES     
   18303 C0         587.7695  -498.4043  -425.0729 C0            1 RES     
   18304 C0         588.2636  -498.0743  -426.4904 C0            1 RES     
   18305 C0         589.6835  -497.5073  -426.5166 C0            1 RES     
   18306 C0         590.1019  -494.5472  -417.8190 C0            1 RES     
   18307 C0         589.3283  -494.5760  -416.4650 C0            1 RES     
   18308 C0         590.1165  -493.7722  -415.4263 C0            1 RES     
   18309 C0         589.7317  -493.9268  -413.9577 C0            1 RES     
   18310 C0         588.5168  -493.1390  -413.4897 C0            1 RES     
   18311 C0         588.3396  -493.4018  -411.9795 C0            1 RES     
   18312 C0         587.2731  -492.5322  -411.3099 C0            1 RES     
   18313 C0         587.6789  -491.0580  -411.2517 C0            1 RES     
   18314 H6         591.0745  -497.2745  -416.9663 H6            1 RES     
   18315 H6         591.8894  -497.5542  -418.4915 H6            1 RES     
   18316 H6         591.0143  -495.5984  -419.4381 H6            1 RES     
   18317 H6         588.9483  -497.2299  -417.7858 H6            1 RES     
   18318 H6         589.7419  -497.7289  -419.3147 H6            1 RES     
   18319 H6         588.5221  -495.8946  -420.5226 H6            1 RES     
   18320 H6         587.7472  -495.4148  -418.9729 H6            1 RES     
   18321 H6         586.1770  -496.7659  -420.2092 H6            1 RES     
   18322 H6         586.6563  -497.6017  -418.7129 H6            1 RES     
   18323 H6         586.4408  -499.1660  -420.6160 H6            1 RES     
   18324 H6         588.0987  -499.1730  -419.9540 H6            1 RES     
   18325 H6         588.9244  -497.7876  -421.8285 H6            1 RES     
   18326 H6         588.1220  -499.2884  -422.3940 H6            1 RES     
   18327 H6         586.8440  -496.4741  -422.3256 H6            1 RES     
   18328 H6         586.0274  -497.9616  -422.9277 H6            1 RES     
   18329 H6         586.9244  -496.4498  -424.7103 H6            1 RES     
   18330 H6         588.5880  -496.6429  -424.0486 H6            1 RES     
   18331 H6         588.4694  -499.1307  -424.6104 H6            1 RES     
   18332 H6         586.7728  -498.8881  -425.1663 H6            1 RES     
   18333 H6         587.5662  -497.3568  -426.9754 H6            1 RES     
   18334 H6         588.2606  -499.0136  -427.0845 H6            1 RES     
   18335 H6         589.7417  -496.5374  -425.9828 H6            1 RES     
   18336 H6         590.3916  -498.2265  -426.0528 H6            1 RES     
   18337 H6         589.9908  -497.3351  -427.5694 H6            1 RES     
   18338 H6         589.4448  -494.0309  -418.5513 H6            1 RES     
   18339 H6         590.9807  -493.8693  -417.7666 H6            1 RES     
   18340 H6         588.3230  -494.1107  -416.5744 H6            1 RES     
   18341 H6         589.1895  -495.6232  -416.1276 H6            1 RES     
   18342 H6         590.2200  -492.7037  -415.7101 H6            1 RES     
   18343 H6         591.0912  -494.2101  -415.4662 H6            1 RES     
   18344 H6         589.6241  -494.9894  -413.7264 H6            1 RES     
   18345 H6         590.5963  -493.5487  -413.3661 H6            1 RES     
   18346 H6         588.7274  -492.0657  -413.6827 H6            1 RES     
   18347 H6         587.6013  -493.4376  -414.0428 H6            1 RES     
   18348 H6         588.0647  -494.4729  -411.8472 H6            1 RES     
   18349 H6         589.2991  -493.2329  -411.4396 H6            1 RES     
   18350 H6         587.1584  -492.8858  -410.2616 H6            1 RES     
   18351 H6         586.2987  -492.6495  -411.8291 H6            1 RES     
   18352 H6         587.7744  -490.6222  -412.2658 H6            1 RES     
   18353 H6         586.9085  -490.4834  -410.6985 H6            1 RES     
   18354 H6         588.6488  -490.9491  -410.7168 H6            1 RES     
   18355 C0         593.9086  -497.6665  -416.7976 C0            1 RES     
   18356 C0         593.3894  -499.1715  -416.6897 C0            1 RES     
   18357 C0         594.4735  -499.9561  -415.8763 C0            1 RES     
   18358 C0         594.3214  -501.4906  -415.8709 C0            1 RES     
   18359 C0         595.3933  -502.2187  -415.0407 C0            1 RES     
   18360 C0         596.8491  -502.0016  -415.4908 C0            1 RES     
   18361 C0         597.1289  -502.3123  -416.9706 C0            1 RES     
   18362 C0         596.7673  -503.7529  -417.3728 C0            1 RES     
   18363 C0         597.0481  -504.0457  -418.8556 C0            1 RES     
   18364 C0         598.5488  -504.0217  -419.1969 C0            1 RES     
   18365 C0         598.8411  -504.4362  -420.6475 C0            1 RES     
   18366 C0         598.2842  -503.4551  -421.6792 C0            1 RES     
   18367 C0         591.9253  -499.6076  -416.2618 C0            1 RES     
   18368 C0         591.3929  -499.3966  -414.8161 C0            1 RES     
   18369 C0         590.3659  -498.2532  -414.7308 C0            1 RES     
   18370 C0         589.8293  -497.9215  -413.3481 C0            1 RES     
   18371 C0         588.8504  -498.9109  -412.7316 C0            1 RES     
   18372 C0         588.3241  -498.2737  -411.4294 C0            1 RES     
   18373 C0         587.2059  -499.0613  -410.7443 C0            1 RES     
   18374 C0         585.9133  -499.0655  -411.5618 C0            1 RES     
   18375 H6         594.5387  -497.4425  -415.9055 H6            1 RES     
   18376 H6         594.6888  -497.7042  -417.5912 H6            1 RES     
   18377 H6         593.4336  -499.5402  -417.7405 H6            1 RES     
   18378 H6         594.4688  -499.5967  -414.8246 H6            1 RES     
   18379 H6         595.4659  -499.7162  -416.3149 H6            1 RES     
   18380 H6         594.3263  -501.8638  -416.9165 H6            1 RES     
   18381 H6         593.3627  -501.7807  -415.3990 H6            1 RES     
   18382 H6         595.1649  -503.3054  -415.0727 H6            1 RES     
   18383 H6         595.3084  -501.9041  -413.9773 H6            1 RES     
   18384 H6         597.5006  -502.6395  -414.8543 H6            1 RES     
   18385 H6         597.1383  -500.9462  -415.2996 H6            1 RES     
   18386 H6         596.5662  -501.6012  -417.6124 H6            1 RES     
   18387 H6         598.2111  -502.1326  -417.1342 H6            1 RES     
   18388 H6         595.6790  -503.9066  -417.2172 H6            1 RES     
   18389 H6         597.3158  -504.4801  -416.7358 H6            1 RES     
   18390 H6         596.6587  -505.0632  -419.0771 H6            1 RES     
   18391 H6         596.4876  -503.3157  -419.4774 H6            1 RES     
   18392 H6         598.9809  -503.0148  -419.0225 H6            1 RES     
   18393 H6         599.0661  -504.7451  -418.5295 H6            1 RES     
   18394 H6         598.4319  -505.4519  -420.8388 H6            1 RES     
   18395 H6         599.9441  -504.4776  -420.7770 H6            1 RES     
   18396 H6         597.1774  -503.4090  -421.6359 H6            1 RES     
   18397 H6         598.7031  -502.4404  -421.5093 H6            1 RES     
   18398 H6         598.5726  -503.7914  -422.6973 H6            1 RES     
   18399 H6         591.9015  -500.7008  -416.4244 H6            1 RES     
   18400 H6         591.1553  -499.3451  -417.0114 H6            1 RES     
   18401 H6         590.8169  -500.3048  -414.5321 H6            1 RES     
   18402 H6         592.2298  -499.2953  -414.0959 H6            1 RES     
   18403 H6         589.5198  -498.4429  -415.4296 H6            1 RES     
   18404 H6         590.8339  -497.3188  -415.0201 H6            1 RES     
   18405 H6         590.6727  -497.7049  -412.6570 H6            1 RES     
   18406 H6         589.2338  -497.0047  -413.4903 H6            1 RES     
   18407 H6         588.0214  -499.0625  -413.4549 H6            1 RES     
   18408 H6         589.3402  -499.8855  -412.5264 H6            1 RES     
   18409 H6         589.1785  -498.1764  -410.7239 H6            1 RES     
   18410 H6         587.9359  -497.2486  -411.6303 H6            1 RES     
   18411 H6         586.9878  -498.5539  -409.7789 H6            1 RES     
   18412 H6         587.5415  -500.0961  -410.5335 H6            1 RES     
   18413 H6         586.0456  -499.5942  -412.5266 H6            1 RES     
   18414 H6         585.1186  -499.5844  -410.9877 H6            1 RES     
   18415 H6         585.5798  -498.0232  -411.7602 H6            1 RES     
   18416 C0         598.3154  -492.5167  -428.3382 C0            1 RES     
   18417 C1         598.0111  -492.2699  -426.8442 C1            1 RES     
   18418 C1         598.7879  -491.2902  -426.3131 C1            1 RES     
   18419 S2         598.5479  -491.0607  -424.6723 S2            1 RES     
   18420 C1         597.4037  -492.3161  -424.5965 C1            1 RES     
   18421 C1         597.2313  -492.8965  -425.8579 C1            1 RES     
   18422 C1         599.6702  -490.8189  -427.3091 C1            1 RES     
   18423 C1         599.4933  -491.5469  -428.4447 C1            1 RES     
   18424 C1         600.4281  -491.2337  -429.4242 C1            1 RES     
   18425 C1         601.2865  -490.2136  -428.9804 C1            1 RES     
   18426 S2         600.9126  -489.7167  -427.4004 S2            1 RES     
   18427 H3         596.6051  -493.7568  -425.9999 H3            1 RES     
   18428 H3         600.4876  -491.7150  -430.3930 H3            1 RES     
   18429 N4         603.6121  -487.8910  -430.7824 N4            1 RES     
   18430 C1         602.4976  -488.3701  -430.1561 C1            1 RES     
   18431 C1         602.4497  -489.6962  -429.6924 C1            1 RES     
   18432 C1         603.5793  -490.4971  -429.8703 C1            1 RES     
   18433 N4         603.6854  -491.7734  -429.4197 N4            1 RES     
   18434 S2         605.2290  -492.1719  -429.8558 S2            1 RES     
   18435 N4         605.7941  -490.8066  -430.6007 N4            1 RES     
   18436 C1         604.7312  -489.9699  -430.5062 C1            1 RES     
   18437 C1         604.7223  -488.6579  -430.9722 C1            1 RES     
   18438 H5         601.6383  -487.7180  -430.0255 H5            1 RES     
   18439 C0         597.2497  -492.1242  -429.4212 C0            1 RES     
   18440 C0         596.7843  -490.7065  -429.9266 C0            1 RES     
   18441 C0         595.6048  -490.9938  -430.9209 C0            1 RES     
   18442 C0         594.9913  -489.7834  -431.6357 C0            1 RES     
   18443 C0         593.8073  -490.1796  -432.5488 C0            1 RES     
   18444 C0         594.1489  -491.1258  -433.7209 C0            1 RES     
   18445 C0         595.2709  -490.6284  -434.6492 C0            1 RES     
   18446 C0         594.9742  -489.2518  -435.2700 C0            1 RES     
   18447 C0         596.1194  -488.7327  -436.1512 C0            1 RES     
   18448 C0         596.3279  -489.5667  -437.4266 C0            1 RES     
   18449 C0         597.3983  -488.9726  -438.3559 C0            1 RES     
   18450 C0         598.8018  -488.9939  -437.7492 C0            1 RES     
   18451 C0         596.4184  -489.5973  -428.8869 C0            1 RES     
   18452 C0         595.1902  -489.8070  -427.9487 C0            1 RES     
   18453 C0         595.6644  -489.7605  -426.4930 C0            1 RES     
   18454 C0         594.7103  -490.2608  -425.4122 C0            1 RES     
   18455 C0         593.6167  -489.2971  -424.9756 C0            1 RES     
   18456 C0         592.8077  -489.9814  -423.8537 C0            1 RES     
   18457 C0         591.7855  -489.0709  -423.1694 C0            1 RES     
   18458 C0         592.4516  -487.9662  -422.3464 C0            1 RES     
   18459 H6         596.3479  -492.6045  -429.1387 H6            1 RES     
   18460 H6         597.6119  -492.6173  -430.3515 H6            1 RES     
   18461 H6         597.6353  -490.2799  -430.5031 H6            1 RES     
   18462 H6         594.7812  -491.5037  -430.3749 H6            1 RES     
   18463 H6         595.9790  -491.6969  -431.6956 H6            1 RES     
   18464 H6         595.7704  -489.2478  -432.2153 H6            1 RES     
   18465 H6         594.5769  -489.0852  -430.8807 H6            1 RES     
   18466 H6         593.3609  -489.2496  -432.9576 H6            1 RES     
   18467 H6         593.0165  -490.6646  -431.9346 H6            1 RES     
   18468 H6         593.2242  -491.2790  -434.3210 H6            1 RES     
   18469 H6         594.4430  -492.1213  -433.3250 H6            1 RES     
   18470 H6         596.2226  -490.5788  -434.0792 H6            1 RES     
   18471 H6         595.3956  -491.3858  -435.4508 H6            1 RES     
   18472 H6         594.8515  -488.5102  -434.4545 H6            1 RES     
   18473 H6         594.0290  -489.2878  -435.8549 H6            1 RES     
   18474 H6         595.8643  -487.6941  -436.4550 H6            1 RES     
   18475 H6         597.0469  -488.6992  -435.5419 H6            1 RES     
   18476 H6         596.6103  -490.6105  -437.1774 H6            1 RES     
   18477 H6         595.3676  -489.5872  -437.9866 H6            1 RES     
   18478 H6         597.1250  -487.9296  -438.6276 H6            1 RES     
   18479 H6         597.4207  -489.5775  -439.2880 H6            1 RES     
   18480 H6         598.8592  -488.3619  -436.8401 H6            1 RES     
   18481 H6         599.0927  -490.0349  -437.4935 H6            1 RES     
   18482 H6         599.5274  -488.5937  -438.4880 H6            1 RES     
   18483 H6         596.2335  -488.6574  -429.4498 H6            1 RES     
   18484 H6         597.3325  -489.3518  -428.3049 H6            1 RES     
   18485 H6         594.4387  -488.9989  -428.0952 H6            1 RES     
   18486 H6         594.7018  -490.7774  -428.1713 H6            1 RES     
   18487 H6         596.1048  -488.7773  -426.2243 H6            1 RES     
   18488 H6         596.4532  -490.4820  -426.4694 H6            1 RES     
   18489 H6         594.2881  -491.2193  -425.7240 H6            1 RES     
   18490 H6         595.3338  -490.4555  -424.5099 H6            1 RES     
   18491 H6         594.1182  -488.3804  -424.5992 H6            1 RES     
   18492 H6         592.9502  -489.0283  -425.8222 H6            1 RES     
   18493 H6         592.2731  -490.8516  -424.2976 H6            1 RES     
   18494 H6         593.4899  -490.3736  -423.0654 H6            1 RES     
   18495 H6         591.1934  -489.6967  -422.4659 H6            1 RES     
   18496 H6         591.0934  -488.6357  -423.9206 H6            1 RES     
   18497 H6         593.0313  -487.2741  -422.9885 H6            1 RES     
   18498 H6         591.6741  -487.3788  -421.8170 H6            1 RES     
   18499 H6         593.1317  -488.4124  -421.5867 H6            1 RES     
   18500 C0         598.7249  -494.0398  -428.4288 C0            1 RES     
   18501 C0         597.8856  -495.1869  -429.1539 C0            1 RES     
   18502 C0         598.3604  -496.5431  -428.5312 C0            1 RES     
   18503 C0         597.8825  -497.8148  -429.2607 C0            1 RES     
   18504 C0         598.3524  -499.1235  -428.6013 C0            1 RES     
   18505 C0         599.8767  -499.3137  -428.5048 C0            1 RES     
   18506 C0         600.6384  -499.1730  -429.8332 C0            1 RES     
   18507 C0         600.1541  -500.1459  -430.9227 C0            1 RES     
   18508 C0         600.9218  -499.9890  -432.2453 C0            1 RES     
   18509 C0         602.4007  -500.4001  -432.1317 C0            1 RES     
   18510 C0         603.1390  -500.3636  -433.4789 C0            1 RES     
   18511 C0         603.2641  -498.9554  -434.0605 C0            1 RES     
   18512 C0         596.3141  -495.1752  -429.3706 C0            1 RES     
   18513 C0         595.3182  -495.2977  -428.1826 C0            1 RES     
   18514 C0         594.6213  -493.9632  -427.8620 C0            1 RES     
   18515 C0         593.6732  -493.9582  -426.6742 C0            1 RES     
   18516 C0         592.3383  -494.6674  -426.8532 C0            1 RES     
   18517 C0         591.4986  -494.3744  -425.5930 C0            1 RES     
   18518 C0         590.0570  -494.8820  -425.6588 C0            1 RES     
   18519 C0         589.2230  -494.1294  -426.6966 C0            1 RES     
   18520 H6         598.9870  -494.3855  -427.4018 H6            1 RES     
   18521 H6         599.7245  -494.0837  -428.9176 H6            1 RES     
   18522 H6         598.2557  -495.1583  -430.2048 H6            1 RES     
   18523 H6         598.0232  -496.5945  -427.4734 H6            1 RES     
   18524 H6         599.4717  -496.5478  -428.5361 H6            1 RES     
   18525 H6         598.2145  -497.7775  -430.3195 H6            1 RES     
   18526 H6         596.7772  -497.8773  -429.2413 H6            1 RES     
   18527 H6         597.9203  -499.9676  -429.1801 H6            1 RES     
   18528 H6         597.9291  -499.1883  -427.5748 H6            1 RES     
   18529 H6         600.0673  -500.3236  -428.0799 H6            1 RES     
   18530 H6         600.2937  -498.5740  -427.7884 H6            1 RES     
   18531 H6         600.5453  -498.1306  -430.2062 H6            1 RES     
   18532 H6         601.7084  -499.3576  -429.6074 H6            1 RES     
   18533 H6         599.0875  -499.9338  -431.1451 H6            1 RES     
   18534 H6         600.2328  -501.1953  -430.5648 H6            1 RES     
   18535 H6         600.4356  -500.6487  -432.9966 H6            1 RES     
   18536 H6         600.8271  -498.9380  -432.5921 H6            1 RES     
   18537 H6         602.9411  -499.7488  -431.4141 H6            1 RES     
   18538 H6         602.4404  -501.4452  -431.7543 H6            1 RES     
   18539 H6         602.6238  -501.0250  -434.2089 H6            1 RES     
   18540 H6         604.1653  -500.7587  -433.3187 H6            1 RES     
   18541 H6         602.2692  -498.5250  -434.2931 H6            1 RES     
   18542 H6         603.7962  -498.2910  -433.3467 H6            1 RES     
   18543 H6         603.8464  -498.9995  -435.0048 H6            1 RES     
   18544 H6         596.1144  -496.0546  -430.0100 H6            1 RES     
   18545 H6         595.9789  -494.4072  -430.0928 H6            1 RES     
   18546 H6         594.4914  -495.9694  -428.5026 H6            1 RES     
   18547 H6         595.8052  -495.7658  -427.3033 H6            1 RES     
   18548 H6         594.0981  -493.5755  -428.7654 H6            1 RES     
   18549 H6         595.3596  -493.2275  -427.5631 H6            1 RES     
   18550 H6         594.2030  -494.3191  -425.7659 H6            1 RES     
   18551 H6         593.4005  -492.8989  -426.5369 H6            1 RES     
   18552 H6         591.8484  -494.2446  -427.7557 H6            1 RES     
   18553 H6         592.4790  -495.7598  -426.9907 H6            1 RES     
   18554 H6         592.0061  -494.8473  -424.7235 H6            1 RES     
   18555 H6         591.4580  -493.2772  -425.4023 H6            1 RES     
   18556 H6         589.5960  -494.6976  -424.6636 H6            1 RES     
   18557 H6         590.0447  -495.9717  -425.8592 H6            1 RES     
   18558 H6         589.6025  -494.3010  -427.7234 H6            1 RES     
   18559 H6         588.1733  -494.4850  -426.6505 H6            1 RES     
   18560 H6         589.2340  -493.0383  -426.4816 H6            1 RES     
   18561 C0         608.3282  -487.2153  -434.7794 C0            1 RES     
   18562 C1         607.5250  -487.4071  -433.4741 C1            1 RES     
   18563 C1         608.2271  -487.0291  -432.3745 C1            1 RES     
   18564 S2         607.4199  -487.3102  -430.9351 S2            1 RES     
   18565 C1         606.0906  -488.0017  -431.7386 C1            1 RES     
   18566 C1         606.3030  -488.0038  -433.1215 C1            1 RES     
   18567 C1         609.5100  -486.6008  -432.7787 C1            1 RES     
   18568 C1         609.6364  -486.7723  -434.1224 C1            1 RES     
   18569 C1         610.9246  -486.5055  -434.5703 C1            1 RES     
   18570 C1         611.7428  -486.0922  -433.5054 C1            1 RES     
   18571 S2         610.8991  -486.0723  -432.0319 S2            1 RES     
   18572 H3         605.6091  -488.4684  -433.7961 H3            1 RES     
   18573 H3         611.2512  -486.6081  -435.5982 H3            1 RES     
   18574 N4         615.0406  -484.3148  -433.3803 N4            1 RES     
   18575 C1         613.6937  -484.5369  -433.3557 C1            1 RES     
   18576 C1         613.1752  -485.8252  -433.5729 C1            1 RES     
   18577 C1         614.0760  -486.8694  -433.7906 C1            1 RES     
   18578 N4         613.7111  -488.1666  -433.9561 N4            1 RES     
   18579 S2         615.1720  -488.9256  -434.1031 S2            1 RES     
   18580 N4         616.2712  -487.6957  -433.9721 N4            1 RES     
   18581 C1         615.4707  -486.6162  -433.7919 C1            1 RES     
   18582 C1         615.9363  -485.3184  -433.5979 C1            1 RES     
   18583 H5         613.0199  -483.7039  -433.1748 H5            1 RES     
   18584 C0         607.8887  -486.1113  -435.8045 C0            1 RES     
   18585 C0         607.9856  -484.5414  -435.7159 C0            1 RES     
   18586 C0         607.2592  -484.0137  -437.0029 C0            1 RES     
   18587 C0         607.2601  -482.4963  -437.2255 C0            1 RES     
   18588 C0         606.4736  -482.0889  -438.4936 C0            1 RES     
   18589 C0         607.0288  -482.6262  -439.8312 C0            1 RES     
   18590 C0         608.5049  -482.2866  -440.1030 C0            1 RES     
   18591 C0         608.7886  -480.7741  -440.0871 C0            1 RES     
   18592 C0         610.2718  -480.4406  -440.3030 C0            1 RES     
   18593 C0         610.7736  -480.7964  -441.7126 C0            1 RES     
   18594 C0         612.2254  -480.3540  -441.9551 C0            1 RES     
   18595 C0         613.2356  -481.0964  -441.0794 C0            1 RES     
   18596 C0         607.4968  -483.8087  -434.4239 C0            1 RES     
   18597 C0         605.9858  -483.8642  -434.0414 C0            1 RES     
   18598 C0         605.8482  -484.5011  -432.6552 C0            1 RES     
   18599 C0         604.4615  -484.9575  -432.2106 C0            1 RES     
   18600 C0         603.5274  -483.8753  -431.6894 C0            1 RES     
   18601 C0         602.2134  -484.5579  -431.2550 C0            1 RES     
   18602 C0         601.2341  -483.6335  -430.5279 C0            1 RES     
   18603 C0         601.7505  -483.2078  -429.1519 C0            1 RES     
   18604 H6         606.8664  -486.2936  -436.0176 H6            1 RES     
   18605 H6         608.4678  -486.3483  -436.7255 H6            1 RES     
   18606 H6         609.0661  -484.2853  -435.7911 H6            1 RES     
   18607 H6         606.1967  -484.3412  -436.9842 H6            1 RES     
   18608 H6         607.7415  -484.4903  -437.8831 H6            1 RES     
   18609 H6         608.3018  -482.1186  -437.2727 H6            1 RES     
   18610 H6         606.7486  -482.0023  -436.3748 H6            1 RES     
   18611 H6         606.4415  -480.9807  -438.5385 H6            1 RES     
   18612 H6         605.4192  -482.4305  -438.3970 H6            1 RES     
   18613 H6         606.4049  -482.2123  -440.6545 H6            1 RES     
   18614 H6         606.9155  -483.7308  -439.8669 H6            1 RES     
   18615 H6         609.1419  -482.7895  -439.3451 H6            1 RES     
   18616 H6         608.7630  -482.7095  -441.0961 H6            1 RES     
   18617 H6         608.5234  -480.3705  -439.0888 H6            1 RES     
   18618 H6         608.1664  -480.2567  -440.8499 H6            1 RES     
   18619 H6         610.3934  -479.3448  -440.1589 H6            1 RES     
   18620 H6         610.8682  -480.9621  -439.5251 H6            1 RES     
   18621 H6         610.6967  -481.8878  -441.8984 H6            1 RES     
   18622 H6         610.1315  -480.2687  -442.4511 H6            1 RES     
   18623 H6         612.3191  -479.2590  -441.7865 H6            1 RES     
   18624 H6         612.4771  -480.5625  -443.0173 H6            1 RES     
   18625 H6         613.0701  -480.8858  -440.0036 H6            1 RES     
   18626 H6         613.1642  -482.1907  -441.2562 H6            1 RES     
   18627 H6         614.2619  -480.7611  -441.3377 H6            1 RES     
   18628 H6         607.7609  -482.7344  -434.5270 H6            1 RES     
   18629 H6         608.1389  -484.1328  -433.5770 H6            1 RES     
   18630 H6         605.5514  -482.8402  -433.9978 H6            1 RES     
   18631 H6         605.4222  -484.4466  -434.7983 H6            1 RES     
   18632 H6         606.3538  -483.9061  -431.8658 H6            1 RES     
   18633 H6         606.3832  -485.4216  -432.7546 H6            1 RES     
   18634 H6         603.9946  -485.5230  -433.0207 H6            1 RES     
   18635 H6         604.6210  -485.6660  -431.3661 H6            1 RES     
   18636 H6         604.0306  -483.3972  -430.8223 H6            1 RES     
   18637 H6         603.3242  -483.1062  -432.4643 H6            1 RES     
   18638 H6         601.7176  -484.9603  -432.1673 H6            1 RES     
   18639 H6         602.4262  -485.4192  -430.5815 H6            1 RES     
   18640 H6         600.2909  -484.2005  -430.3668 H6            1 RES     
   18641 H6         601.0074  -482.7443  -431.1529 H6            1 RES     
   18642 H6         602.6733  -482.6003  -429.2341 H6            1 RES     
   18643 H6         600.9789  -482.5986  -428.6389 H6            1 RES     
   18644 H6         601.9608  -484.1051  -428.5279 H6            1 RES     
   18645 C0         608.3919  -488.6497  -435.4382 C0            1 RES     
   18646 C0         607.6730  -489.0825  -436.7954 C0            1 RES     
   18647 C0         607.5520  -490.6432  -436.7537 C0            1 RES     
   18648 C0         607.1299  -491.3145  -438.0762 C0            1 RES     
   18649 C0         607.0007  -492.8451  -437.9829 C0            1 RES     
   18650 C0         608.2814  -493.6013  -437.5868 C0            1 RES     
   18651 C0         609.5138  -493.2994  -438.4556 C0            1 RES     
   18652 C0         609.2935  -493.5858  -439.9514 C0            1 RES     
   18653 C0         610.5325  -493.2742  -440.8064 C0            1 RES     
   18654 C0         611.7172  -494.2104  -440.5075 C0            1 RES     
   18655 C0         612.9129  -493.9836  -441.4456 C0            1 RES     
   18656 C0         613.5648  -492.6118  -441.2714 C0            1 RES     
   18657 C0         606.3576  -488.4216  -437.3872 C0            1 RES     
   18658 C0         604.9754  -488.5734  -436.6913 C0            1 RES     
   18659 C0         604.5231  -487.2762  -435.9971 C0            1 RES     
   18660 C0         603.2117  -487.3352  -435.2311 C0            1 RES     
   18661 C0         601.9331  -487.3969  -436.0548 C0            1 RES     
   18662 C0         600.7539  -487.2719  -435.0684 C0            1 RES     
   18663 C0         599.3803  -487.1595  -435.7323 C0            1 RES     
   18664 C0         599.2098  -485.8449  -436.4951 C0            1 RES     
   18665 H6         608.1463  -489.3995  -434.6505 H6            1 RES     
   18666 H6         609.4663  -488.8849  -435.6125 H6            1 RES     
   18667 H6         608.4220  -488.8300  -437.5811 H6            1 RES     
   18668 H6         606.8245  -490.9299  -435.9638 H6            1 RES     
   18669 H6         608.5450  -491.0527  -436.4685 H6            1 RES     
   18670 H6         607.8500  -491.0378  -438.8746 H6            1 RES     
   18671 H6         606.1217  -490.9703  -438.3778 H6            1 RES     
   18672 H6         606.6550  -493.2159  -438.9715 H6            1 RES     
   18673 H6         606.2056  -493.1010  -437.2484 H6            1 RES     
   18674 H6         608.0612  -494.6903  -437.6316 H6            1 RES     
   18675 H6         608.5365  -493.3628  -436.5322 H6            1 RES     
   18676 H6         609.8081  -492.2359  -438.3263 H6            1 RES     
   18677 H6         610.3396  -493.9290  -438.0660 H6            1 RES     
   18678 H6         608.4755  -492.9349  -440.3249 H6            1 RES     
   18679 H6         608.9908  -494.6448  -440.1005 H6            1 RES     
   18680 H6         610.2471  -493.4062  -441.8728 H6            1 RES     
   18681 H6         610.8169  -492.2117  -440.6514 H6            1 RES     
   18682 H6         612.0623  -494.0939  -439.4595 H6            1 RES     
   18683 H6         611.3729  -495.2583  -440.6483 H6            1 RES     
   18684 H6         612.5928  -494.1138  -442.5022 H6            1 RES     
   18685 H6         613.6787  -494.7563  -441.2186 H6            1 RES     
   18686 H6         612.8633  -491.7951  -441.5360 H6            1 RES     
   18687 H6         613.9069  -492.4797  -440.2229 H6            1 RES     
   18688 H6         614.4454  -492.5368  -441.9435 H6            1 RES     
   18689 H6         606.2355  -488.8872  -438.3823 H6            1 RES     
   18690 H6         606.5120  -487.3857  -437.7432 H6            1 RES     
   18691 H6         604.2139  -488.7401  -437.4848 H6            1 RES     
   18692 H6         604.9614  -489.4603  -436.0258 H6            1 RES     
   18693 H6         604.4964  -486.4372  -436.7290 H6            1 RES     
   18694 H6         605.2278  -487.0145  -435.2158 H6            1 RES     
   18695 H6         603.2483  -488.1550  -434.4812 H6            1 RES     
   18696 H6         603.1491  -486.3676  -434.7063 H6            1 RES     
   18697 H6         601.9435  -486.5401  -436.7613 H6            1 RES     
   18698 H6         601.8707  -488.3445  -436.6292 H6            1 RES     
   18699 H6         600.7610  -488.1669  -434.4081 H6            1 RES     
   18700 H6         600.8859  -486.3751  -434.4201 H6            1 RES     
   18701 H6         598.6191  -487.1753  -434.9216 H6            1 RES     
   18702 H6         599.2066  -488.0270  -436.3994 H6            1 RES     
   18703 H6         599.9134  -485.7772  -437.3485 H6            1 RES     
   18704 H6         598.1758  -485.7835  -436.8922 H6            1 RES     
   18705 H6         599.3770  -484.9807  -435.8154 H6            1 RES     
   18706 C0         620.9688  -484.0769  -435.2442 C0            1 RES     
   18707 C1         619.6971  -484.3996  -434.4292 C1            1 RES     
   18708 C1         619.9761  -484.7105  -433.1366 C1            1 RES     
   18709 S2         618.6285  -485.1553  -432.2488 S2            1 RES     
   18710 C1         617.6038  -484.9878  -433.5952 C1            1 RES     
   18711 C1         618.3356  -484.5893  -434.7192 C1            1 RES     
   18712 C1         621.3749  -484.6708  -432.9509 C1            1 RES     
   18713 C1         621.9770  -484.4006  -434.1406 C1            1 RES     
   18714 C1         623.3618  -484.4872  -434.0637 C1            1 RES     
   18715 C1         623.7660  -484.7982  -432.7544 C1            1 RES     
   18716 S2         622.4391  -484.9813  -431.7108 S2            1 RES     
   18717 H3         617.8779  -484.5032  -435.6864 H3            1 RES     
   18718 H3         624.0340  -484.3401  -434.9006 H3            1 RES     
   18719 N4         627.0547  -484.5141  -430.9785 N4            1 RES     
   18720 C1         625.7934  -484.2211  -431.4114 C1            1 RES     
   18721 C1         625.1304  -485.0690  -432.3154 C1            1 RES     
   18722 C1         625.7886  -486.2257  -432.7370 C1            1 RES     
   18723 N4         625.2404  -487.1554  -433.5607 N4            1 RES     
   18724 S2         626.4341  -488.2954  -433.6461 S2            1 RES     
   18725 N4         627.6365  -487.6810  -432.6896 N4            1 RES     
   18726 C1         627.0903  -486.5175  -432.2576 C1            1 RES     
   18727 C1         627.7173  -485.6340  -431.3830 C1            1 RES     
   18728 H5         625.3055  -483.3172  -431.0571 H5            1 RES     
   18729 C0         621.2232  -482.6077  -435.7338 C0            1 RES     
   18730 C0         621.6228  -481.3177  -434.9226 C0            1 RES     
   18731 C0         621.5962  -480.1508  -435.9714 C0            1 RES     
   18732 C0         622.0206  -478.7633  -435.4743 C0            1 RES     
   18733 C0         621.9063  -477.6848  -436.5773 C0            1 RES     
   18734 C0         622.8077  -477.8899  -437.8148 C0            1 RES     
   18735 C0         624.3074  -478.0433  -437.5056 C0            1 RES     
   18736 C0         624.8895  -476.8461  -436.7333 C0            1 RES     
   18737 C0         626.3721  -477.0268  -436.3773 C0            1 RES     
   18738 C0         627.2944  -477.0306  -437.6082 C0            1 RES     
   18739 C0         628.7836  -477.0965  -437.2338 C0            1 RES     
   18740 C0         629.1773  -478.4107  -436.5583 C0            1 RES     
   18741 C0         620.8418  -480.9524  -433.6181 C0            1 RES     
   18742 C0         619.3305  -480.5791  -433.7136 C0            1 RES     
   18743 C0         618.5227  -481.5581  -432.8564 C0            1 RES     
   18744 C0         617.0092  -481.5981  -433.0477 C0            1 RES     
   18745 C0         616.2106  -480.5012  -432.3588 C0            1 RES     
   18746 C0         614.7158  -480.7597  -432.6421 C0            1 RES     
   18747 C0         613.7611  -479.8538  -431.8612 C0            1 RES     
   18748 C0         613.7765  -480.1509  -430.3603 C0            1 RES     
   18749 H6         620.3539  -482.3170  -436.2661 H6            1 RES     
   18750 H6         622.0491  -482.7062  -436.4741 H6            1 RES     
   18751 H6         622.6736  -481.4664  -434.5874 H6            1 RES     
   18752 H6         620.5678  -480.0509  -436.3824 H6            1 RES     
   18753 H6         622.2665  -480.4348  -436.8107 H6            1 RES     
   18754 H6         623.0527  -478.8023  -435.0705 H6            1 RES     
   18755 H6         621.3396  -478.4433  -434.6600 H6            1 RES     
   18756 H6         622.1408  -476.7002  -436.1226 H6            1 RES     
   18757 H6         620.8514  -477.6270  -436.9261 H6            1 RES     
   18758 H6         622.6655  -477.0191  -438.4929 H6            1 RES     
   18759 H6         622.4758  -478.7902  -438.3747 H6            1 RES     
   18760 H6         624.4672  -478.9732  -436.9200 H6            1 RES     
   18761 H6         624.8337  -478.1598  -438.4757 H6            1 RES     
   18762 H6         624.3504  -476.7455  -435.7694 H6            1 RES     
   18763 H6         624.7480  -475.9075  -437.3126 H6            1 RES     
   18764 H6         626.6669  -476.1745  -435.7269 H6            1 RES     
   18765 H6         626.4838  -477.9647  -435.7938 H6            1 RES     
   18766 H6         627.0568  -477.8810  -438.2804 H6            1 RES     
   18767 H6         627.1279  -476.0841  -438.1673 H6            1 RES     
   18768 H6         629.0437  -476.2432  -436.5701 H6            1 RES     
   18769 H6         629.3789  -477.0015  -438.1675 H6            1 RES     
   18770 H6         628.6541  -478.5401  -435.5895 H6            1 RES     
   18771 H6         628.9406  -479.2687  -437.2227 H6            1 RES     
   18772 H6         630.2692  -478.4077  -436.3575 H6            1 RES     
   18773 H6         621.3560  -480.0855  -433.1507 H6            1 RES     
   18774 H6         621.0109  -481.7604  -432.8745 H6            1 RES     
   18775 H6         619.1525  -479.5504  -433.3271 H6            1 RES     
   18776 H6         618.9953  -480.6140  -434.7701 H6            1 RES     
   18777 H6         618.7961  -481.5022  -431.7817 H6            1 RES     
   18778 H6         618.8354  -482.5149  -433.2171 H6            1 RES     
   18779 H6         616.7849  -481.6354  -434.1165 H6            1 RES     
   18780 H6         616.6632  -482.5605  -432.6066 H6            1 RES     
   18781 H6         616.4254  -480.5724  -431.2715 H6            1 RES     
   18782 H6         616.5036  -479.4945  -432.7247 H6            1 RES     
   18783 H6         614.5420  -480.6102  -433.7319 H6            1 RES     
   18784 H6         614.4507  -481.8145  -432.4020 H6            1 RES     
   18785 H6         612.7302  -480.0536  -432.2278 H6            1 RES     
   18786 H6         614.0009  -478.7864  -432.0511 H6            1 RES     
   18787 H6         614.7671  -479.9359  -429.9133 H6            1 RES     
   18788 H6         613.0213  -479.5194  -429.8499 H6            1 RES     
   18789 H6         613.5205  -481.2188  -430.1792 H6            1 RES     
   18790 C0         620.9663  -485.1115  -436.4380 C0            1 RES     
   18791 C0         620.7612  -484.7527  -437.9792 C0            1 RES     
   18792 C0         620.2911  -486.0711  -438.6815 C0            1 RES     
   18793 C0         620.2844  -486.0391  -440.2232 C0            1 RES     
   18794 C0         619.7934  -487.3462  -440.8700 C0            1 RES     
   18795 C0         620.6137  -488.6056  -440.5385 C0            1 RES     
   18796 C0         622.1217  -488.4959  -440.8191 C0            1 RES     
   18797 C0         622.4485  -488.1454  -442.2814 C0            1 RES     
   18798 C0         623.9591  -488.0345  -442.5441 C0            1 RES     
   18799 C0         624.6920  -489.3806  -442.4022 C0            1 RES     
   18800 C0         626.1777  -489.2984  -442.7854 C0            1 RES     
   18801 C0         626.9953  -488.4124  -441.8453 C0            1 RES     
   18802 C0         619.9656  -483.4954  -438.5297 C0            1 RES     
   18803 C0         618.4249  -483.3607  -438.3679 C0            1 RES     
   18804 C0         618.0361  -482.3144  -437.3079 C0            1 RES     
   18805 C0         616.5519  -482.1498  -437.0258 C0            1 RES     
   18806 C0         615.7199  -481.4498  -438.0912 C0            1 RES     
   18807 C0         614.3079  -481.2509  -437.5032 C0            1 RES     
   18808 C0         613.3671  -480.4211  -438.3786 C0            1 RES     
   18809 C0         613.8054  -478.9592  -438.4789 C0            1 RES     
   18810 H6         620.2719  -485.9416  -436.1702 H6            1 RES     
   18811 H6         621.9417  -485.6480  -436.4111 H6            1 RES     
   18812 H6         621.7941  -484.5374  -438.3382 H6            1 RES     
   18813 H6         619.2682  -486.3253  -438.3288 H6            1 RES     
   18814 H6         620.9748  -486.8872  -438.3631 H6            1 RES     
   18815 H6         621.3018  -485.7878  -440.5896 H6            1 RES     
   18816 H6         619.5790  -485.2680  -440.5890 H6            1 RES     
   18817 H6         619.7906  -487.1980  -441.9711 H6            1 RES     
   18818 H6         618.7387  -487.5299  -440.5683 H6            1 RES     
   18819 H6         620.1934  -489.4502  -441.1272 H6            1 RES     
   18820 H6         620.4805  -488.8576  -439.4648 H6            1 RES     
   18821 H6         622.5693  -487.7297  -440.1506 H6            1 RES     
   18822 H6         622.5665  -489.4770  -440.5552 H6            1 RES     
   18823 H6         622.0090  -487.1543  -442.5199 H6            1 RES     
   18824 H6         622.0021  -488.8978  -442.9671 H6            1 RES     
   18825 H6         624.0935  -487.6753  -443.5877 H6            1 RES     
   18826 H6         624.3875  -487.2745  -441.8567 H6            1 RES     
   18827 H6         624.6146  -489.7687  -441.3657 H6            1 RES     
   18828 H6         624.2077  -490.1110  -443.0865 H6            1 RES     
   18829 H6         626.2778  -488.9283  -443.8289 H6            1 RES     
   18830 H6         626.6012  -490.3250  -442.7406 H6            1 RES     
   18831 H6         626.6538  -487.3585  -441.8854 H6            1 RES     
   18832 H6         626.9185  -488.7861  -440.8021 H6            1 RES     
   18833 H6         628.0618  -488.4379  -442.1532 H6            1 RES     
   18834 H6         620.1438  -483.5087  -439.6206 H6            1 RES     
   18835 H6         620.4726  -482.5339  -438.3239 H6            1 RES     
   18836 H6         618.0195  -482.9514  -439.3194 H6            1 RES     
   18837 H6         617.9548  -484.3517  -438.2056 H6            1 RES     
   18838 H6         618.4854  -481.3268  -437.5591 H6            1 RES     
   18839 H6         618.4167  -482.6167  -436.3387 H6            1 RES     
   18840 H6         616.1086  -483.1307  -436.7479 H6            1 RES     
   18841 H6         616.5044  -481.4724  -436.1572 H6            1 RES     
   18842 H6         616.1963  -480.4693  -438.3030 H6            1 RES     
   18843 H6         615.6796  -482.0470  -439.0259 H6            1 RES     
   18844 H6         613.8568  -482.2550  -437.3435 H6            1 RES     
   18845 H6         614.3701  -480.7487  -436.5103 H6            1 RES     
   18846 H6         612.3659  -480.4362  -437.8945 H6            1 RES     
   18847 H6         613.2815  -480.8761  -439.3853 H6            1 RES     
   18848 H6         614.7834  -478.8635  -438.9909 H6            1 RES     
   18849 H6         613.0517  -478.3901  -439.0608 H6            1 RES     
   18850 H6         613.8794  -478.5090  -437.4646 H6            1 RES     
   18851 C0         633.1310  -485.8360  -430.9043 C0            1 RES     
   18852 C1         631.6044  -485.9307  -430.6893 C1            1 RES     
   18853 C1         631.2775  -486.7484  -429.6550 C1            1 RES     
   18854 S2         629.6275  -486.9459  -429.4530 S2            1 RES     
   18855 C1         629.2782  -485.9603  -430.7937 C1            1 RES     
   18856 C1         630.4608  -485.4955  -431.3794 C1            1 RES     
   18857 C1         632.4622  -487.2908  -429.1117 C1            1 RES     
   18858 C1         633.5263  -486.8666  -429.8456 C1            1 RES     
   18859 C1         634.7132  -487.4754  -429.4558 C1            1 RES     
   18860 C1         634.4914  -488.3448  -428.3746 C1            1 RES     
   18861 S2         632.8568  -488.3777  -427.9160 S2            1 RES     
   18862 H3         630.4508  -484.9191  -432.2849 H3            1 RES     
   18863 H3         635.6742  -487.3052  -429.9263 H3            1 RES     
   18864 N4         636.7934  -489.9183  -425.8696 N4            1 RES     
   18865 C1         635.9022  -489.0534  -426.4368 C1            1 RES     
   18866 C1         635.4772  -489.2304  -427.7649 C1            1 RES     
   18867 C1         635.9739  -490.3249  -428.4749 C1            1 RES     
   18868 N4         635.6017  -490.6425  -429.7414 N4            1 RES     
   18869 S2         636.4483  -492.0350  -430.0169 S2            1 RES     
   18870 N4         637.2826  -492.2755  -428.6081 N4            1 RES     
   18871 C1         636.8832  -491.2196  -427.8569 C1            1 RES     
   18872 C1         637.2955  -490.9886  -426.5471 C1            1 RES     
   18873 H5         635.5278  -488.2163  -425.8539 H5            1 RES     
   18874 C0         633.8758  -484.4909  -430.5902 C0            1 RES     
   18875 C0         634.2000  -483.8033  -429.2103 C0            1 RES     
   18876 C0         634.8463  -482.4229  -429.5833 C0            1 RES     
   18877 C0         635.3375  -481.5517  -428.4205 C0            1 RES     
   18878 C0         635.9072  -480.1968  -428.9027 C0            1 RES     
   18879 C0         637.1521  -480.2763  -429.8137 C0            1 RES     
   18880 C0         638.3355  -481.0652  -429.2262 C0            1 RES     
   18881 C0         638.8174  -480.5113  -427.8736 C0            1 RES     
   18882 C0         639.9613  -481.3336  -427.2629 C0            1 RES     
   18883 C0         641.2667  -481.2492  -428.0718 C0            1 RES     
   18884 C0         642.4347  -481.9812  -427.3918 C0            1 RES     
   18885 C0         642.2300  -483.4942  -427.3073 C0            1 RES     
   18886 C0         633.0719  -483.6527  -428.1380 C0            1 RES     
   18887 C0         631.8429  -482.7434  -428.4470 C0            1 RES     
   18888 C0         630.5684  -483.5897  -428.3712 C0            1 RES     
   18889 C0         629.2835  -483.0036  -428.9494 C0            1 RES     
   18890 C0         628.5433  -482.0016  -428.0755 C0            1 RES     
   18891 C0         627.2628  -481.5793  -428.8261 C0            1 RES     
   18892 C0         626.3048  -480.7170  -428.0011 C0            1 RES     
   18893 C0         625.6638  -481.4983  -426.8522 C0            1 RES     
   18894 H6         633.3729  -483.7371  -431.1404 H6            1 RES     
   18895 H6         634.8817  -484.6225  -431.0490 H6            1 RES     
   18896 H6         634.9736  -484.4326  -428.7161 H6            1 RES     
   18897 H6         634.1116  -481.8177  -430.1582 H6            1 RES     
   18898 H6         635.7111  -482.6236  -430.2513 H6            1 RES     
   18899 H6         636.0918  -482.1031  -427.8232 H6            1 RES     
   18900 H6         634.4810  -481.3073  -427.7603 H6            1 RES     
   18901 H6         636.1562  -479.5894  -428.0081 H6            1 RES     
   18902 H6         635.1151  -479.6398  -429.4506 H6            1 RES     
   18903 H6         637.4841  -479.2375  -430.0351 H6            1 RES     
   18904 H6         636.8760  -480.7389  -430.7854 H6            1 RES     
   18905 H6         638.0424  -482.1295  -429.1058 H6            1 RES     
   18906 H6         639.1602  -481.0232  -429.9676 H6            1 RES     
   18907 H6         637.9802  -480.5601  -427.1479 H6            1 RES     
   18908 H6         639.1263  -479.4483  -427.9799 H6            1 RES     
   18909 H6         640.1581  -480.9303  -426.2457 H6            1 RES     
   18910 H6         639.6242  -482.3865  -427.1606 H6            1 RES     
   18911 H6         641.1300  -481.6643  -429.0919 H6            1 RES     
   18912 H6         641.5472  -480.1773  -428.1639 H6            1 RES     
   18913 H6         642.5956  -481.5688  -426.3718 H6            1 RES     
   18914 H6         643.3535  -481.7944  -427.9885 H6            1 RES     
   18915 H6         641.3541  -483.7493  -426.6773 H6            1 RES     
   18916 H6         642.0892  -483.9189  -428.3239 H6            1 RES     
   18917 H6         643.1265  -483.9611  -426.8484 H6            1 RES     
   18918 H6         633.5396  -483.2538  -427.2126 H6            1 RES     
   18919 H6         632.7520  -484.6697  -427.8254 H6            1 RES     
   18920 H6         631.7602  -481.9233  -427.6989 H6            1 RES     
   18921 H6         631.9504  -482.2855  -429.4512 H6            1 RES     
   18922 H6         630.4032  -484.0132  -427.3582 H6            1 RES     
   18923 H6         630.7771  -484.4060  -429.0295 H6            1 RES     
   18924 H6         629.4945  -482.5841  -429.9361 H6            1 RES     
   18925 H6         628.5883  -483.8607  -429.0997 H6            1 RES     
   18926 H6         628.2927  -482.5178  -427.1246 H6            1 RES     
   18927 H6         629.1715  -481.1128  -427.8551 H6            1 RES     
   18928 H6         627.5683  -481.0097  -429.7330 H6            1 RES     
   18929 H6         626.6982  -482.4764  -429.1682 H6            1 RES     
   18930 H6         625.4841  -480.3852  -428.6745 H6            1 RES     
   18931 H6         626.8299  -479.8172  -427.6171 H6            1 RES     
   18932 H6         626.4204  -481.8300  -426.1141 H6            1 RES     
   18933 H6         624.9293  -480.8526  -426.3296 H6            1 RES     
   18934 H6         625.1276  -482.3897  -427.2481 H6            1 RES     
   18935 C0         633.3680  -486.3161  -432.3905 C0            1 RES     
   18936 C0         633.8691  -485.3982  -433.5956 C0            1 RES     
   18937 C0         633.4329  -486.1220  -434.9140 C0            1 RES     
   18938 C0         634.0390  -485.5588  -436.2153 C0            1 RES     
   18939 C0         633.5648  -486.2844  -437.4869 C0            1 RES     
   18940 C0         633.8881  -487.7875  -437.5588 C0            1 RES     
   18941 C0         635.3686  -488.1482  -437.3528 C0            1 RES     
   18942 C0         636.3118  -487.4595  -438.3549 C0            1 RES     
   18943 C0         637.7880  -487.8264  -438.1323 C0            1 RES     
   18944 C0         638.0883  -489.3067  -438.4280 C0            1 RES     
   18945 C0         639.5833  -489.6475  -438.3277 C0            1 RES     
   18946 C0         640.1406  -489.5068  -436.9111 C0            1 RES     
   18947 C0         633.6534  -483.8302  -433.7047 C0            1 RES     
   18948 C0         632.2443  -483.2054  -433.9101 C0            1 RES     
   18949 C0         631.7132  -482.5256  -432.6353 C0            1 RES     
   18950 C0         630.3140  -481.9371  -432.7097 C0            1 RES     
   18951 C0         630.1443  -480.6593  -433.5194 C0            1 RES     
   18952 C0         628.6972  -480.1735  -433.2987 C0            1 RES     
   18953 C0         628.3846  -478.8093  -433.9162 C0            1 RES     
   18954 C0         629.1391  -477.6724  -433.2253 C0            1 RES     
   18955 H6         632.4591  -486.8714  -432.7200 H6            1 RES     
   18956 H6         634.1093  -487.1462  -432.3544 H6            1 RES     
   18957 H6         634.9798  -485.4665  -433.5332 H6            1 RES     
   18958 H6         632.3250  -486.0888  -434.9968 H6            1 RES     
   18959 H6         633.7375  -487.1876  -434.8325 H6            1 RES     
   18960 H6         635.1467  -485.5878  -436.1471 H6            1 RES     
   18961 H6         633.7236  -484.5078  -436.3634 H6            1 RES     
   18962 H6         634.0271  -485.7747  -438.3590 H6            1 RES     
   18963 H6         632.4642  -486.1610  -437.5895 H6            1 RES     
   18964 H6         633.5567  -488.1596  -438.5530 H6            1 RES     
   18965 H6         633.2920  -488.3277  -436.7926 H6            1 RES     
   18966 H6         635.6757  -487.8815  -436.3189 H6            1 RES     
   18967 H6         635.4448  -489.2499  -437.4550 H6            1 RES     
   18968 H6         636.2326  -486.3600  -438.2250 H6            1 RES     
   18969 H6         636.0157  -487.7089  -439.3968 H6            1 RES     
   18970 H6         638.3970  -487.2045  -438.8240 H6            1 RES     
   18971 H6         638.0692  -487.5644  -437.0901 H6            1 RES     
   18972 H6         637.5266  -489.9721  -437.7404 H6            1 RES     
   18973 H6         637.7628  -489.5237  -439.4688 H6            1 RES     
   18974 H6         640.1641  -489.0037  -439.0234 H6            1 RES     
   18975 H6         639.7163  -490.7050  -438.6428 H6            1 RES     
   18976 H6         640.0849  -488.4573  -436.5580 H6            1 RES     
   18977 H6         639.5799  -490.1622  -436.2111 H6            1 RES     
   18978 H6         641.2078  -489.8130  -436.9052 H6            1 RES     
   18979 H6         634.2376  -483.5298  -434.5938 H6            1 RES     
   18980 H6         634.2383  -483.2565  -432.9614 H6            1 RES     
   18981 H6         632.3465  -482.3743  -434.6423 H6            1 RES     
   18982 H6         631.5414  -483.9454  -434.3434 H6            1 RES     
   18983 H6         632.4316  -481.7501  -432.2847 H6            1 RES     
   18984 H6         631.6057  -483.2612  -431.8460 H6            1 RES     
   18985 H6         629.5919  -482.7182  -433.0329 H6            1 RES     
   18986 H6         630.0808  -481.6350  -431.6754 H6            1 RES     
   18987 H6         630.8700  -479.9136  -433.1314 H6            1 RES     
   18988 H6         630.3428  -480.8372  -434.5968 H6            1 RES     
   18989 H6         628.0094  -480.9308  -433.7351 H6            1 RES     
   18990 H6         628.4743  -480.1057  -432.2089 H6            1 RES     
   18991 H6         627.2975  -478.6229  -433.7731 H6            1 RES     
   18992 H6         628.6024  -478.8230  -435.0026 H6            1 RES     
   18993 H6         630.2343  -477.7709  -433.3619 H6            1 RES     
   18994 H6         628.8207  -476.7034  -433.6615 H6            1 RES     
   18995 H6         628.9070  -477.6612  -432.1377 H6            1 RES     
   18996 C0         641.8959  -493.3120  -424.8102 C0            1 RES     
   18997 C1         640.4277  -492.9088  -425.0703 C1            1 RES     
   18998 C1         639.5489  -493.8530  -424.6444 C1            1 RES     
   18999 S2         637.9528  -493.4890  -424.9945 S2            1 RES     
   19000 C1         638.3854  -492.0461  -425.7830 C1            1 RES     
   19001 C1         639.7740  -491.8753  -425.7617 C1            1 RES     
   19002 C1         640.2731  -494.9434  -424.1160 C1            1 RES     
   19003 C1         641.6050  -494.7131  -424.2704 C1            1 RES     
   19004 C1         642.3768  -495.8086  -423.9023 C1            1 RES     
   19005 C1         641.5619  -496.8522  -423.4322 C1            1 RES     
   19006 S2         639.9154  -496.4403  -423.4851 S2            1 RES     
   19007 H3         640.2480  -491.0606  -426.2753 H3            1 RES     
   19008 H3         643.4570  -495.8510  -423.9741 H3            1 RES     
   19009 N4         642.2855  -499.9210  -421.4050 N4            1 RES     
   19010 C1         641.9041  -498.6512  -421.7310 C1            1 RES     
   19011 C1         642.0065  -498.1891  -423.0546 C1            1 RES     
   19012 C1         642.4860  -499.0712  -424.0246 C1            1 RES     
   19013 N4         642.5804  -498.7712  -425.3454 N4            1 RES     
   19014 S2         643.1357  -500.1891  -425.9881 S2            1 RES     
   19015 N4         643.2744  -501.1895  -424.6773 N4            1 RES     
   19016 C1         642.8570  -500.3909  -423.6640 C1            1 RES     
   19017 C1         642.7624  -500.7952  -422.3350 C1            1 RES     
   19018 H5         641.5266  -497.9924  -420.9537 H5            1 RES     
   19019 C0         642.7355  -492.5314  -423.7386 C0            1 RES     
   19020 C0         642.6359  -492.5334  -422.1663 C0            1 RES     
   19021 C0         643.6650  -491.4487  -421.6901 C0            1 RES     
   19022 C0         643.8403  -491.2781  -420.1760 C0            1 RES     
   19023 C0         644.8383  -490.1496  -419.8246 C0            1 RES     
   19024 C0         646.2894  -490.3594  -420.3105 C0            1 RES     
   19025 C0         646.9406  -491.6776  -419.8561 C0            1 RES     
   19026 C0         646.9628  -491.8433  -418.3262 C0            1 RES     
   19027 C0         647.5621  -493.1839  -417.8777 C0            1 RES     
   19028 C0         649.0636  -493.3096  -418.1865 C0            1 RES     
   19029 C0         649.6773  -494.6049  -417.6316 C0            1 RES     
   19030 C0         649.1262  -495.8661  -418.2978 C0            1 RES     
   19031 C0         641.2414  -492.3607  -421.4802 C0            1 RES     
   19032 C0         640.4669  -491.0181  -421.6546 C0            1 RES     
   19033 C0         639.1120  -491.3084  -422.3072 C0            1 RES     
   19034 C0         638.3216  -490.1315  -422.8720 C0            1 RES     
   19035 C0         637.5399  -489.2969  -421.8680 C0            1 RES     
   19036 C0         636.7849  -488.2035  -422.6527 C0            1 RES     
   19037 C0         635.7969  -487.3929  -421.8106 C0            1 RES     
   19038 C0         634.6008  -488.2302  -421.3531 C0            1 RES     
   19039 H6         642.6695  -491.5058  -423.9984 H6            1 RES     
   19040 H6         643.7844  -492.8550  -423.9253 H6            1 RES     
   19041 H6         642.9931  -493.5312  -421.8269 H6            1 RES     
   19042 H6         643.3688  -490.4580  -422.0991 H6            1 RES     
   19043 H6         644.6547  -491.7080  -422.1234 H6            1 RES     
   19044 H6         644.1571  -492.2373  -419.7185 H6            1 RES     
   19045 H6         642.8707  -490.9815  -419.7275 H6            1 RES     
   19046 H6         644.8442  -490.0255  -418.7220 H6            1 RES     
   19047 H6         644.4696  -489.1888  -420.2474 H6            1 RES     
   19048 H6         646.9029  -489.5071  -419.9421 H6            1 RES     
   19049 H6         646.3217  -490.3220  -421.4204 H6            1 RES     
   19050 H6         646.3959  -492.5312  -420.3119 H6            1 RES     
   19051 H6         647.9771  -491.6871  -420.2527 H6            1 RES     
   19052 H6         645.9198  -491.8298  -417.9494 H6            1 RES     
   19053 H6         647.5158  -491.0015  -417.8548 H6            1 RES     
   19054 H6         647.4280  -493.2593  -416.7765 H6            1 RES     
   19055 H6         646.9878  -494.0053  -418.3552 H6            1 RES     
   19056 H6         649.2499  -493.2654  -419.2795 H6            1 RES     
   19057 H6         649.5876  -492.4545  -417.7064 H6            1 RES     
   19058 H6         649.5121  -494.6602  -416.5335 H6            1 RES     
   19059 H6         650.7731  -494.5739  -417.8146 H6            1 RES     
   19060 H6         648.0406  -495.9834  -418.1061 H6            1 RES     
   19061 H6         649.3053  -495.8300  -419.3934 H6            1 RES     
   19062 H6         649.6430  -496.7566  -417.8826 H6            1 RES     
   19063 H6         641.3842  -492.5074  -420.3882 H6            1 RES     
   19064 H6         640.6079  -493.2302  -421.7577 H6            1 RES     
   19065 H6         640.2813  -490.5380  -420.6676 H6            1 RES     
   19066 H6         641.0584  -490.3147  -422.2752 H6            1 RES     
   19067 H6         638.4732  -491.9640  -421.6787 H6            1 RES     
   19068 H6         639.3757  -491.8625  -423.1829 H6            1 RES     
   19069 H6         638.9900  -489.5052  -423.4679 H6            1 RES     
   19070 H6         637.5701  -490.5653  -423.5702 H6            1 RES     
   19071 H6         636.8287  -489.9797  -421.3568 H6            1 RES     
   19072 H6         638.2111  -488.8355  -421.1132 H6            1 RES     
   19073 H6         637.5397  -487.5098  -423.0877 H6            1 RES     
   19074 H6         636.2163  -488.6533  -423.4982 H6            1 RES     
   19075 H6         635.4020  -486.5728  -422.4498 H6            1 RES     
   19076 H6         636.3144  -486.9407  -420.9385 H6            1 RES     
   19077 H6         634.9131  -489.0491  -420.6755 H6            1 RES     
   19078 H6         633.8831  -487.5840  -420.8081 H6            1 RES     
   19079 H6         634.0800  -488.6669  -422.2345 H6            1 RES     
   19080 C0         642.5842  -493.2996  -426.2321 C0            1 RES     
   19081 C0         643.7078  -492.2736  -426.7125 C0            1 RES     
   19082 C0         643.6753  -492.2832  -428.2781 C0            1 RES     
   19083 C0         644.8518  -491.5688  -428.9735 C0            1 RES     
   19084 C0         644.7666  -491.5822  -430.5100 C0            1 RES     
   19085 C0         644.7504  -492.9743  -431.1665 C0            1 RES     
   19086 C0         645.9114  -493.8995  -430.7656 C0            1 RES     
   19087 C0         647.2992  -493.3036  -431.0607 C0            1 RES     
   19088 C0         648.4484  -494.2383  -430.6497 C0            1 RES     
   19089 C0         648.5046  -495.5249  -431.4927 C0            1 RES     
   19090 C0         649.7243  -496.4017  -431.1692 C0            1 RES     
   19091 C0         649.6971  -496.9740  -429.7519 C0            1 RES     
   19092 C0         643.9054  -490.8023  -426.1527 C0            1 RES     
   19093 C0         642.8666  -489.6754  -426.4147 C0            1 RES     
   19094 C0         642.0428  -489.3343  -425.1599 C0            1 RES     
   19095 C0         640.9532  -488.2876  -425.3242 C0            1 RES     
   19096 C0         641.4026  -486.8417  -425.4808 C0            1 RES     
   19097 C0         640.1318  -485.9681  -425.4525 C0            1 RES     
   19098 C0         640.3973  -484.4616  -425.4437 C0            1 RES     
   19099 C0         641.0516  -483.9948  -424.1425 C0            1 RES     
   19100 H6         641.7791  -493.3324  -427.0026 H6            1 RES     
   19101 H6         643.0480  -494.3008  -426.3823 H6            1 RES     
   19102 H6         644.6597  -492.7611  -426.3988 H6            1 RES     
   19103 H6         642.7261  -491.8200  -428.6243 H6            1 RES     
   19104 H6         643.6792  -493.3435  -428.6108 H6            1 RES     
   19105 H6         645.8074  -492.0233  -428.6378 H6            1 RES     
   19106 H6         644.8612  -490.4942  -428.7069 H6            1 RES     
   19107 H6         645.6345  -491.0097  -430.9014 H6            1 RES     
   19108 H6         643.8517  -491.0370  -430.8303 H6            1 RES     
   19109 H6         644.7622  -492.8305  -432.2691 H6            1 RES     
   19110 H6         643.7980  -493.4874  -430.9142 H6            1 RES     
   19111 H6         645.8389  -494.1390  -429.6832 H6            1 RES     
   19112 H6         645.7755  -494.8438  -431.3312 H6            1 RES     
   19113 H6         647.4211  -492.3697  -430.4734 H6            1 RES     
   19114 H6         647.3884  -493.0503  -432.1393 H6            1 RES     
   19115 H6         649.4013  -493.6851  -430.7981 H6            1 RES     
   19116 H6         648.3485  -494.4754  -429.5692 H6            1 RES     
   19117 H6         647.5859  -496.1316  -431.3551 H6            1 RES     
   19118 H6         648.5743  -495.2332  -432.5634 H6            1 RES     
   19119 H6         650.6584  -495.8177  -431.3185 H6            1 RES     
   19120 H6         649.7324  -497.2549  -431.8813 H6            1 RES     
   19121 H6         649.7414  -496.1692  -428.9907 H6            1 RES     
   19122 H6         648.7767  -497.5768  -429.5989 H6            1 RES     
   19123 H6         650.5797  -497.6316  -429.6054 H6            1 RES     
   19124 H6         644.8424  -490.4495  -426.6213 H6            1 RES     
   19125 H6         644.2630  -490.7781  -425.1061 H6            1 RES     
   19126 H6         643.4292  -488.7417  -426.6360 H6            1 RES     
   19127 H6         642.2452  -489.9073  -427.3032 H6            1 RES     
   19128 H6         642.7184  -489.0489  -424.3218 H6            1 RES     
   19129 H6         641.4742  -490.2033  -424.8482 H6            1 RES     
   19130 H6         640.2624  -488.5860  -426.1425 H6            1 RES     
   19131 H6         640.4062  -488.2988  -424.3671 H6            1 RES     
   19132 H6         642.0634  -486.5975  -424.6223 H6            1 RES     
   19133 H6         641.9632  -486.6955  -426.4275 H6            1 RES     
   19134 H6         639.5212  -486.2195  -426.3476 H6            1 RES     
   19135 H6         639.5202  -486.2048  -424.5514 H6            1 RES     
   19136 H6         639.4120  -483.9519  -425.5226 H6            1 RES     
   19137 H6         641.0149  -484.1776  -426.3187 H6            1 RES     
   19138 H6         642.0611  -484.4340  -424.0162 H6            1 RES     
   19139 H6         641.1532  -482.8903  -424.1594 H6            1 RES     
   19140 H6         640.4201  -484.2762  -423.2713 H6            1 RES     
   19141 C0         645.6730  -505.0882  -420.6988 C0            1 RES     
   19142 C1         644.5537  -504.1121  -421.1233 C1            1 RES     
   19143 C1         643.3928  -504.7531  -421.4180 C1            1 RES     
   19144 S2         642.1860  -503.7328  -421.9704 S2            1 RES     
   19145 C1         643.2013  -502.3722  -421.8762 C1            1 RES     
   19146 C1         644.4704  -502.7407  -421.4165 C1            1 RES     
   19147 C1         643.5904  -506.1430  -421.2709 C1            1 RES     
   19148 C1         644.8911  -506.3786  -420.9489 C1            1 RES     
   19149 C1         645.1929  -507.7350  -420.9282 C1            1 RES     
   19150 C1         644.0497  -508.5005  -421.2135 C1            1 RES     
   19151 S2         642.6919  -507.5232  -421.5042 S2            1 RES     
   19152 H3         645.2756  -502.0330  -421.3613 H3            1 RES     
   19153 H3         646.1761  -508.1425  -420.7253 H3            1 RES     
   19154 N4         643.2204  -512.1175  -420.6842 N4            1 RES     
   19155 C1         643.2891  -510.7681  -420.4876 C1            1 RES     
   19156 C1         644.0023  -509.9489  -421.3799 C1            1 RES     
   19157 C1         644.6156  -510.5511  -422.4799 C1            1 RES     
   19158 N4         645.2845  -509.8699  -423.4452 N4            1 RES     
   19159 S2         645.7183  -511.0760  -424.4888 S2            1 RES     
   19160 N4         645.1061  -512.4442  -423.7877 N4            1 RES     
   19161 C1         644.5129  -511.9517  -422.6723 C1            1 RES     
   19162 C1         643.8174  -512.7259  -421.7472 C1            1 RES     
   19163 H5         642.7931  -510.3295  -419.6261 H5            1 RES     
   19164 C0         646.1750  -505.0920  -419.2119 C0            1 RES     
   19165 C0         645.4687  -505.6009  -417.8989 C0            1 RES     
   19166 C0         646.4409  -505.2055  -416.7323 C0            1 RES     
   19167 C0         646.0411  -505.6459  -415.3186 C0            1 RES     
   19168 C0         647.0441  -505.1582  -414.2467 C0            1 RES     
   19169 C0         648.4837  -505.7031  -414.3751 C0            1 RES     
   19170 C0         648.5948  -507.2374  -414.4133 C0            1 RES     
   19171 C0         647.9776  -507.9177  -413.1784 C0            1 RES     
   19172 C0         648.0396  -509.4504  -413.2454 C0            1 RES     
   19173 C0         649.4733  -510.0023  -413.1715 C0            1 RES     
   19174 C0         649.5165  -511.5379  -413.1236 C0            1 RES     
   19175 C0         649.0064  -512.1952  -414.4066 C0            1 RES     
   19176 C0         643.9929  -505.1780  -417.6018 C0            1 RES     
   19177 C0         643.6673  -503.6742  -417.3463 C0            1 RES     
   19178 C0         642.6495  -503.2030  -418.3893 C0            1 RES     
   19179 C0         642.4263  -501.7014  -418.5455 C0            1 RES     
   19180 C0         641.5194  -501.0412  -417.5173 C0            1 RES     
   19181 C0         641.3955  -499.5488  -417.8895 C0            1 RES     
   19182 C0         640.3627  -498.7777  -417.0643 C0            1 RES     
   19183 C0         638.9299  -499.2210  -417.3669 C0            1 RES     
   19184 H6         646.4453  -504.0920  -418.9868 H6            1 RES     
   19185 H6         647.1129  -505.6913  -419.2423 H6            1 RES     
   19186 H6         645.4333  -506.7111  -417.9673 H6            1 RES     
   19187 H6         646.5564  -504.0998  -416.7104 H6            1 RES     
   19188 H6         647.4370  -505.6423  -416.9592 H6            1 RES     
   19189 H6         645.9319  -506.7488  -415.2794 H6            1 RES     
   19190 H6         645.0653  -505.1895  -415.0564 H6            1 RES     
   19191 H6         646.6442  -505.4344  -413.2491 H6            1 RES     
   19192 H6         647.0937  -504.0470  -414.2691 H6            1 RES     
   19193 H6         649.0757  -505.3189  -413.5145 H6            1 RES     
   19194 H6         648.9564  -505.2988  -415.2956 H6            1 RES     
   19195 H6         648.0982  -507.6177  -415.3309 H6            1 RES     
   19196 H6         649.6736  -507.4882  -414.4837 H6            1 RES     
   19197 H6         646.9016  -507.6542  -413.1247 H6            1 RES     
   19198 H6         648.4728  -507.5561  -412.2507 H6            1 RES     
   19199 H6         647.4711  -509.8472  -412.3761 H6            1 RES     
   19200 H6         647.5322  -509.7845  -414.1747 H6            1 RES     
   19201 H6         650.0783  -509.6544  -414.0343 H6            1 RES     
   19202 H6         649.9422  -509.6216  -412.2380 H6            1 RES     
   19203 H6         648.9258  -511.9049  -412.2560 H6            1 RES     
   19204 H6         650.5734  -511.8493  -412.9781 H6            1 RES     
   19205 H6         647.9360  -511.9651  -414.5811 H6            1 RES     
   19206 H6         649.6042  -511.8508  -415.2771 H6            1 RES     
   19207 H6         649.1076  -513.2973  -414.3200 H6            1 RES     
   19208 H6         643.6593  -505.7347  -416.6999 H6            1 RES     
   19209 H6         643.3435  -505.6011  -418.3979 H6            1 RES     
   19210 H6         643.2207  -503.5327  -416.3365 H6            1 RES     
   19211 H6         644.5947  -503.0687  -417.4018 H6            1 RES     
   19212 H6         641.6873  -503.7526  -418.3178 H6            1 RES     
   19213 H6         643.1058  -503.4754  -419.3171 H6            1 RES     
   19214 H6         643.3956  -501.1993  -418.5947 H6            1 RES     
   19215 H6         641.9332  -501.5594  -419.5341 H6            1 RES     
   19216 H6         640.5326  -501.5473  -417.5771 H6            1 RES     
   19217 H6         641.9247  -501.1495  -416.4891 H6            1 RES     
   19218 H6         642.3937  -499.0756  -417.7485 H6            1 RES     
   19219 H6         641.1200  -499.4367  -418.9629 H6            1 RES     
   19220 H6         640.4427  -497.7036  -417.3417 H6            1 RES     
   19221 H6         640.5827  -498.8782  -415.9806 H6            1 RES     
   19222 H6         638.7614  -500.2772  -417.0779 H6            1 RES     
   19223 H6         638.2185  -498.5882  -416.7984 H6            1 RES     
   19224 H6         638.7140  -499.1027  -418.4523 H6            1 RES     
   19225 C0         646.8481  -504.8381  -421.7245 C0            1 RES     
   19226 C0         648.2670  -504.1973  -421.3750 C0            1 RES     
   19227 C0         648.8502  -503.6523  -422.7224 C0            1 RES     
   19228 C0         650.3316  -503.2258  -422.6832 C0            1 RES     
   19229 C0         650.8554  -502.6750  -424.0212 C0            1 RES     
   19230 C0         650.7902  -503.6445  -425.2148 C0            1 RES     
   19231 C0         651.4643  -505.0077  -424.9872 C0            1 RES     
   19232 C0         652.9511  -504.8994  -424.6050 C0            1 RES     
   19233 C0         653.6086  -506.2699  -424.3761 C0            1 RES     
   19234 C0         653.7045  -507.1104  -425.6619 C0            1 RES     
   19235 C0         654.4722  -508.4266  -425.4629 C0            1 RES     
   19236 C0         653.7650  -509.4011  -424.5209 C0            1 RES     
   19237 C0         648.5497  -503.1923  -420.1804 C0            1 RES     
   19238 C0         647.9748  -501.7476  -420.1664 C0            1 RES     
   19239 C0         646.8226  -501.5850  -419.1587 C0            1 RES     
   19240 C0         646.1463  -500.2248  -419.1111 C0            1 RES     
   19241 C0         646.9293  -499.0863  -418.4725 C0            1 RES     
   19242 C0         645.9772  -497.8758  -418.3866 C0            1 RES     
   19243 C0         646.5445  -496.6748  -417.6278 C0            1 RES     
   19244 C0         646.7215  -496.9611  -416.1359 C0            1 RES     
   19245 H6         646.4244  -504.3050  -422.6073 H6            1 RES     
   19246 H6         647.0992  -505.8209  -422.1839 H6            1 RES     
   19247 H6         648.8857  -505.0756  -421.0785 H6            1 RES     
   19248 H6         648.2413  -502.7848  -423.0569 H6            1 RES     
   19249 H6         648.7493  -504.4547  -423.4846 H6            1 RES     
   19250 H6         650.9523  -504.0846  -422.3520 H6            1 RES     
   19251 H6         650.4734  -502.3931  -421.9674 H6            1 RES     
   19252 H6         651.9107  -502.3630  -423.8682 H6            1 RES     
   19253 H6         650.2852  -501.7580  -424.2876 H6            1 RES     
   19254 H6         651.2652  -503.1434  -426.0865 H6            1 RES     
   19255 H6         649.7272  -503.8261  -425.4818 H6            1 RES     
   19256 H6         650.9218  -505.5623  -424.1919 H6            1 RES     
   19257 H6         651.3557  -505.5781  -425.9321 H6            1 RES     
   19258 H6         653.0364  -504.3403  -423.6499 H6            1 RES     
   19259 H6         653.5100  -504.3403  -425.3864 H6            1 RES     
   19260 H6         654.6401  -506.0898  -424.0023 H6            1 RES     
   19261 H6         653.0430  -506.8117  -423.5885 H6            1 RES     
   19262 H6         652.6960  -507.3456  -426.0601 H6            1 RES     
   19263 H6         654.2515  -506.5138  -426.4243 H6            1 RES     
   19264 H6         655.4940  -508.2127  -425.0809 H6            1 RES     
   19265 H6         654.5698  -508.9204  -426.4537 H6            1 RES     
   19266 H6         653.6842  -508.9852  -423.4964 H6            1 RES     
   19267 H6         652.7497  -509.6375  -424.9046 H6            1 RES     
   19268 H6         654.3498  -510.3431  -424.4620 H6            1 RES     
   19269 H6         649.6482  -503.0687  -420.1744 H6            1 RES     
   19270 H6         648.4637  -503.6642  -419.1836 H6            1 RES     
   19271 H6         648.7708  -501.0706  -419.7850 H6            1 RES     
   19272 H6         647.7173  -501.4130  -421.1917 H6            1 RES     
   19273 H6         647.1602  -501.8757  -418.1380 H6            1 RES     
   19274 H6         646.0002  -502.2351  -419.4354 H6            1 RES     
   19275 H6         645.7846  -499.9466  -420.1248 H6            1 RES     
   19276 H6         645.2799  -500.3650  -418.4439 H6            1 RES     
   19277 H6         647.2364  -499.4142  -417.4569 H6            1 RES     
   19278 H6         647.8336  -498.8381  -419.0662 H6            1 RES     
   19279 H6         645.7276  -497.5598  -419.4234 H6            1 RES     
   19280 H6         645.0253  -498.1678  -417.8861 H6            1 RES     
   19281 H6         645.8088  -495.8462  -417.7229 H6            1 RES     
   19282 H6         647.5022  -496.3532  -418.0831 H6            1 RES     
   19283 H6         647.4759  -497.7540  -415.9621 H6            1 RES     
   19284 H6         647.0636  -496.0384  -415.6240 H6            1 RES     
   19285 H6         645.7536  -497.2741  -415.6864 H6            1 RES     
   19286 C0         644.8226  -518.0664  -421.5313 C0            1 RES     
   19287 C1         644.2061  -516.6664  -421.7451 C1            1 RES     
   19288 C1         643.1435  -516.6928  -422.5909 C1            1 RES     
   19289 S2         642.5089  -515.1784  -422.9167 S2            1 RES     
   19290 C1         643.6798  -514.4076  -421.9545 C1            1 RES     
   19291 C1         644.5507  -515.3498  -421.3965 C1            1 RES     
   19292 C1         642.9542  -518.0169  -423.0425 C1            1 RES     
   19293 C1         643.9368  -518.8082  -422.5334 C1            1 RES     
   19294 C1         643.8976  -520.0976  -423.0502 C1            1 RES     
   19295 C1         642.8194  -520.2415  -423.9396 C1            1 RES     
   19296 S2         641.9378  -518.7992  -424.1014 S2            1 RES     
   19297 H3         645.4047  -515.0525  -420.8180 H3            1 RES     
   19298 H3         644.6054  -520.8800  -422.8037 H3            1 RES     
   19299 N4         641.0700  -523.2451  -425.3424 N4            1 RES     
   19300 C1         641.3532  -522.1726  -424.5464 C1            1 RES     
   19301 C1         642.5214  -521.4177  -424.7491 C1            1 RES     
   19302 C1         643.3671  -521.7823  -425.7983 C1            1 RES     
   19303 N4         644.4940  -521.1051  -426.1374 N4            1 RES     
   19304 S2         645.0235  -521.9451  -427.4587 S2            1 RES     
   19305 N4         643.8988  -523.1452  -427.6408 N4            1 RES     
   19306 C1         643.0407  -522.8881  -426.6229 C1            1 RES     
   19307 C1         641.8853  -523.6218  -426.3671 C1            1 RES     
   19308 H5         640.6695  -521.9099  -423.7438 H5            1 RES     
   19309 C0         644.6865  -518.7677  -420.1340 C0            1 RES     
   19310 C0         643.4280  -519.4025  -419.4303 C0            1 RES     
   19311 C0         643.9257  -519.8205  -418.0021 C0            1 RES     
   19312 C0         642.9166  -520.5433  -417.1012 C0            1 RES     
   19313 C0         643.4995  -520.8600  -415.7038 C0            1 RES     
   19314 C0         644.7143  -521.8138  -415.6820 C0            1 RES     
   19315 C0         644.4885  -523.1667  -416.3797 C0            1 RES     
   19316 C0         643.3022  -523.9552  -415.7968 C0            1 RES     
   19317 C0         643.0443  -525.2788  -416.5310 C0            1 RES     
   19318 C0         644.1729  -526.3063  -416.3416 C0            1 RES     
   19319 C0         643.8525  -527.6652  -416.9842 C0            1 RES     
   19320 C0         643.7549  -527.6026  -418.5090 C0            1 RES     
   19321 C0         642.0876  -518.5993  -419.3729 C0            1 RES     
   19322 C0         642.0299  -517.2693  -418.5602 C0            1 RES     
   19323 C0         641.6349  -516.1287  -419.5031 C0            1 RES     
   19324 C0         641.8296  -514.6958  -419.0155 C0            1 RES     
   19325 C0         640.7629  -514.1487  -418.0783 C0            1 RES     
   19326 C0         641.1289  -512.6854  -417.7529 C0            1 RES     
   19327 C0         640.0540  -511.9263  -416.9716 C0            1 RES     
   19328 C0         638.7954  -511.6797  -417.8060 C0            1 RES     
   19329 H6         645.0610  -518.0807  -419.4187 H6            1 RES     
   19330 H6         645.4030  -519.6185  -420.1849 H6            1 RES     
   19331 H6         643.1773  -520.3250  -420.0002 H6            1 RES     
   19332 H6         644.2653  -518.9153  -417.4528 H6            1 RES     
   19333 H6         644.8073  -520.4843  -418.1318 H6            1 RES     
   19334 H6         642.5594  -521.4695  -417.5954 H6            1 RES     
   19335 H6         642.0437  -519.8822  -416.9273 H6            1 RES     
   19336 H6         642.6899  -521.2970  -415.0834 H6            1 RES     
   19337 H6         643.7987  -519.9105  -415.2072 H6            1 RES     
   19338 H6         644.9902  -521.9963  -414.6195 H6            1 RES     
   19339 H6         645.5870  -521.3194  -416.1598 H6            1 RES     
   19340 H6         644.3209  -522.9959  -417.4641 H6            1 RES     
   19341 H6         645.4236  -523.7542  -416.2701 H6            1 RES     
   19342 H6         642.3790  -523.3519  -415.9141 H6            1 RES     
   19343 H6         643.4604  -524.1450  -414.7126 H6            1 RES     
   19344 H6         642.1078  -525.7138  -416.1187 H6            1 RES     
   19345 H6         642.8820  -525.0602  -417.6074 H6            1 RES     
   19346 H6         645.1286  -525.9291  -416.7609 H6            1 RES     
   19347 H6         644.3096  -526.4720  -415.2507 H6            1 RES     
   19348 H6         642.9034  -528.0658  -416.5657 H6            1 RES     
   19349 H6         644.6699  -528.3717  -416.7237 H6            1 RES     
   19350 H6         642.9188  -526.9513  -418.8344 H6            1 RES     
   19351 H6         644.7065  -527.2231  -418.9382 H6            1 RES     
   19352 H6         643.5671  -528.6216  -418.9072 H6            1 RES     
   19353 H6         641.3126  -519.2698  -418.9436 H6            1 RES     
   19354 H6         641.7266  -518.4516  -420.4133 H6            1 RES     
   19355 H6         641.2663  -517.3326  -417.7527 H6            1 RES     
   19356 H6         643.0137  -517.0668  -418.0903 H6            1 RES     
   19357 H6         640.6261  -516.2757  -419.9432 H6            1 RES     
   19358 H6         642.3460  -516.2104  -420.2975 H6            1 RES     
   19359 H6         642.8255  -514.6001  -418.5760 H6            1 RES     
   19360 H6         641.8088  -514.0507  -419.9232 H6            1 RES     
   19361 H6         639.7933  -514.2037  -418.6171 H6            1 RES     
   19362 H6         640.6972  -514.7463  -417.1446 H6            1 RES     
   19363 H6         642.0696  -512.6911  -417.1567 H6            1 RES     
   19364 H6         641.3290  -512.1165  -418.6893 H6            1 RES     
   19365 H6         640.4722  -510.9318  -416.7011 H6            1 RES     
   19366 H6         639.8029  -512.4684  -416.0357 H6            1 RES     
   19367 H6         638.2976  -512.6302  -418.0817 H6            1 RES     
   19368 H6         638.0774  -511.0690  -417.2217 H6            1 RES     
   19369 H6         639.0548  -511.1231  -418.7342 H6            1 RES     
   19370 C0         646.3295  -517.9262  -421.9841 C0            1 RES     
   19371 C0         647.6010  -518.0133  -421.0240 C0            1 RES     
   19372 C0         648.7710  -517.2903  -421.7729 C0            1 RES     
   19373 C0         650.1727  -517.4781  -421.1579 C0            1 RES     
   19374 C0         651.2874  -516.7316  -421.9117 C0            1 RES     
   19375 C0         651.4827  -517.1325  -423.3848 C0            1 RES     
   19376 C0         651.6931  -518.6358  -423.6307 C0            1 RES     
   19377 C0         652.8944  -519.2190  -422.8659 C0            1 RES     
   19378 C0         653.0880  -520.7231  -423.1183 C0            1 RES     
   19379 C0         653.4919  -521.0397  -424.5694 C0            1 RES     
   19380 C0         653.8075  -522.5267  -424.7938 C0            1 RES     
   19381 C0         652.5907  -523.4351  -424.6173 C0            1 RES     
   19382 C0         647.6074  -517.6618  -419.4770 C0            1 RES     
   19383 C0         647.4087  -516.2079  -418.9623 C0            1 RES     
   19384 C0         646.0208  -515.9938  -418.3321 C0            1 RES     
   19385 C0         645.6997  -514.5876  -417.8535 C0            1 RES     
   19386 C0         646.4003  -514.1117  -416.5887 C0            1 RES     
   19387 C0         645.7848  -512.7469  -416.2177 C0            1 RES     
   19388 C0         646.2597  -512.1796  -414.8787 C0            1 RES     
   19389 C0         645.7689  -513.0077  -413.6902 C0            1 RES     
   19390 H6         646.4158  -517.0053  -422.6065 H6            1 RES     
   19391 H6         646.5162  -518.7084  -422.7544 H6            1 RES     
   19392 H6         647.8424  -519.1012  -421.0063 H6            1 RES     
   19393 H6         648.5509  -516.2022  -421.8253 H6            1 RES     
   19394 H6         648.8023  -517.6830  -422.8120 H6            1 RES     
   19395 H6         650.4066  -518.5619  -421.1013 H6            1 RES     
   19396 H6         650.2029  -517.0583  -420.1338 H6            1 RES     
   19397 H6         652.2385  -516.9016  -421.3633 H6            1 RES     
   19398 H6         651.0860  -515.6384  -421.8735 H6            1 RES     
   19399 H6         652.3598  -516.5723  -423.7765 H6            1 RES     
   19400 H6         650.5983  -516.8076  -423.9734 H6            1 RES     
   19401 H6         650.7739  -519.1912  -423.3461 H6            1 RES     
   19402 H6         651.8406  -518.7620  -424.7226 H6            1 RES     
   19403 H6         652.7197  -519.0976  -421.7765 H6            1 RES     
   19404 H6         653.8238  -518.6707  -423.1323 H6            1 RES     
   19405 H6         653.9020  -521.0746  -422.4476 H6            1 RES     
   19406 H6         652.1539  -521.2562  -422.8406 H6            1 RES     
   19407 H6         652.6957  -520.7356  -425.2797 H6            1 RES     
   19408 H6         654.4115  -520.4610  -424.8057 H6            1 RES     
   19409 H6         654.6172  -522.8483  -424.1033 H6            1 RES     
   19410 H6         654.1740  -522.6464  -425.8361 H6            1 RES     
   19411 H6         652.2087  -523.4005  -423.5771 H6            1 RES     
   19412 H6         651.7825  -523.1347  -425.3177 H6            1 RES     
   19413 H6         652.8809  -524.4835  -424.8399 H6            1 RES     
   19414 H6         648.6130  -517.9596  -419.1277 H6            1 RES     
   19415 H6         647.0349  -518.3825  -418.8634 H6            1 RES     
   19416 H6         648.1196  -516.0467  -418.1221 H6            1 RES     
   19417 H6         647.6553  -515.4701  -419.7524 H6            1 RES     
   19418 H6         645.8572  -516.7215  -417.5050 H6            1 RES     
   19419 H6         645.2510  -516.1585  -419.0778 H6            1 RES     
   19420 H6         645.8361  -513.8642  -418.6866 H6            1 RES     
   19421 H6         644.6333  -514.6219  -417.5755 H6            1 RES     
   19422 H6         646.2033  -514.8586  -415.7909 H6            1 RES     
   19423 H6         647.4955  -514.0232  -416.7453 H6            1 RES     
   19424 H6         646.0389  -512.0240  -417.0239 H6            1 RES     
   19425 H6         644.6739  -512.8234  -416.1729 H6            1 RES     
   19426 H6         645.8238  -511.1614  -414.7780 H6            1 RES     
   19427 H6         647.3645  -512.0952  -414.8700 H6            1 RES     
   19428 H6         646.1984  -514.0290  -413.7028 H6            1 RES     
   19429 H6         646.0778  -512.5128  -412.7467 H6            1 RES     
   19430 H6         644.6591  -513.0788  -413.7025 H6            1 RES     
   19431 C0         641.5147  -528.6782  -428.3354 C0            1 RES     
   19432 C1         641.3585  -527.1690  -428.0461 C1            1 RES     
   19433 C1         640.7358  -526.5101  -429.0577 C1            1 RES     
   19434 S2         640.6327  -524.8567  -428.8167 S2            1 RES     
   19435 C1         641.4711  -524.9525  -427.3407 C1            1 RES     
   19436 C1         641.8209  -526.2785  -427.0629 C1            1 RES     
   19437 C1         640.4507  -527.4284  -430.0913 C1            1 RES     
   19438 C1         640.9528  -528.6480  -429.7576 C1            1 RES     
   19439 C1         640.8349  -529.5688  -430.7918 C1            1 RES     
   19440 C1         640.1895  -528.9906  -431.8978 C1            1 RES     
   19441 S2         639.7855  -527.3658  -431.6145 S2            1 RES     
   19442 H3         642.4222  -526.5345  -426.2113 H3            1 RES     
   19443 H3         641.1967  -530.5892  -430.7499 H3            1 RES     
   19444 N4         638.5126  -530.4593  -434.9113 N4            1 RES     
   19445 C1         638.6908  -529.9118  -433.6733 C1            1 RES     
   19446 C1         639.9805  -529.6176  -433.1981 C1            1 RES     
   19447 C1         641.0664  -529.8796  -434.0354 C1            1 RES     
   19448 N4         642.3555  -529.5902  -433.7224 N4            1 RES     
   19449 S2         643.1605  -530.0529  -435.0898 S2            1 RES     
   19450 N4         641.9620  -530.6146  -436.0829 N4            1 RES     
   19451 C1         640.8535  -530.4301  -435.3242 C1            1 RES     
   19452 C1         639.5591  -530.7291  -435.7413 C1            1 RES     
   19453 H5         637.8237  -529.7119  -433.0497 H5            1 RES     
   19454 C0         640.6895  -529.7173  -427.4975 C0            1 RES     
   19455 C0         639.1493  -530.0479  -427.5151 C0            1 RES     
   19456 C0         638.9406  -531.0852  -426.3562 C0            1 RES     
   19457 C0         637.5261  -531.6513  -426.1801 C0            1 RES     
   19458 C0         637.4280  -532.6216  -424.9794 C0            1 RES     
   19459 C0         638.2926  -533.8981  -425.0737 C0            1 RES     
   19460 C0         638.0650  -534.7429  -426.3396 C0            1 RES     
   19461 C0         636.6027  -535.1909  -426.5108 C0            1 RES     
   19462 C0         636.3672  -535.9860  -427.8031 C0            1 RES     
   19463 C0         637.0728  -537.3526  -427.8104 C0            1 RES     
   19464 C0         636.7378  -538.1869  -429.0570 C0            1 RES     
   19465 C0         637.2629  -537.5698  -430.3538 C0            1 RES     
   19466 C0         638.1081  -528.8828  -427.4544 C0            1 RES     
   19467 C0         638.0324  -527.9938  -426.1751 C0            1 RES     
   19468 C0         638.3025  -526.5377  -426.5664 C0            1 RES     
   19469 C0         638.6024  -525.5399  -425.4514 C0            1 RES     
   19470 C0         637.4036  -525.0005  -424.6850 C0            1 RES     
   19471 C0         637.9269  -523.9830  -423.6495 C0            1 RES     
   19472 C0         636.8289  -523.2036  -422.9222 C0            1 RES     
   19473 C0         636.0873  -522.2410  -423.8520 C0            1 RES     
   19474 H6         640.8954  -529.5083  -426.4788 H6            1 RES     
   19475 H6         641.1606  -530.6971  -427.7378 H6            1 RES     
   19476 H6         638.9447  -530.5559  -428.4839 H6            1 RES     
   19477 H6         639.2288  -530.6175  -425.3894 H6            1 RES     
   19478 H6         639.6314  -531.9366  -426.5358 H6            1 RES     
   19479 H6         637.1959  -532.1496  -427.1142 H6            1 RES     
   19480 H6         636.8251  -530.8205  -425.9618 H6            1 RES     
   19481 H6         636.3650  -532.9170  -424.8607 H6            1 RES     
   19482 H6         637.7107  -532.0828  -424.0480 H6            1 RES     
   19483 H6         638.0815  -534.5243  -424.1782 H6            1 RES     
   19484 H6         639.3687  -533.6256  -425.0282 H6            1 RES     
   19485 H6         638.3788  -534.1591  -427.2306 H6            1 RES     
   19486 H6         638.7267  -535.6309  -426.2667 H6            1 RES     
   19487 H6         635.9582  -534.2910  -426.5800 H6            1 RES     
   19488 H6         636.2764  -535.7877  -425.6310 H6            1 RES     
   19489 H6         635.2730  -536.1612  -427.8942 H6            1 RES     
   19490 H6         636.6931  -535.3655  -428.6642 H6            1 RES     
   19491 H6         638.1741  -537.2319  -427.7464 H6            1 RES     
   19492 H6         636.7300  -537.9229  -426.9197 H6            1 RES     
   19493 H6         635.6376  -538.3300  -429.1305 H6            1 RES     
   19494 H6         637.2088  -539.1867  -428.9402 H6            1 RES     
   19495 H6         636.7884  -536.5884  -430.5559 H6            1 RES     
   19496 H6         638.3649  -537.4422  -430.2984 H6            1 RES     
   19497 H6         637.0257  -538.2437  -431.2036 H6            1 RES     
   19498 H6         637.0993  -529.3265  -427.5951 H6            1 RES     
   19499 H6         638.2268  -528.2632  -428.3691 H6            1 RES     
   19500 H6         637.0199  -528.0479  -425.7158 H6            1 RES     
   19501 H6         638.7712  -528.3418  -425.4249 H6            1 RES     
   19502 H6         637.5420  -526.1430  -427.2727 H6            1 RES     
   19503 H6         639.2308  -526.5942  -427.0939 H6            1 RES     
   19504 H6         639.3402  -525.9740  -424.7722 H6            1 RES     
   19505 H6         639.0829  -524.6611  -425.9387 H6            1 RES     
   19506 H6         636.7372  -524.5065  -425.4235 H6            1 RES     
   19507 H6         636.8462  -525.8155  -424.1767 H6            1 RES     
   19508 H6         638.5314  -524.5387  -422.8972 H6            1 RES     
   19509 H6         638.5990  -523.2411  -424.1379 H6            1 RES     
   19510 H6         637.3164  -522.5912  -422.1320 H6            1 RES     
   19511 H6         636.1174  -523.9035  -422.4356 H6            1 RES     
   19512 H6         635.5405  -522.7844  -424.6476 H6            1 RES     
   19513 H6         635.3525  -521.6524  -423.2661 H6            1 RES     
   19514 H6         636.8065  -521.5343  -424.3233 H6            1 RES     
   19515 C0         643.0687  -528.9526  -428.2627 C0            1 RES     
   19516 C0         643.8078  -529.8256  -427.1501 C0            1 RES     
   19517 C0         645.3063  -529.3708  -427.1544 C0            1 RES     
   19518 C0         646.2746  -530.2592  -426.3475 C0            1 RES     
   19519 C0         647.7310  -529.7620  -426.3598 C0            1 RES     
   19520 C0         648.3945  -529.6706  -427.7456 C0            1 RES     
   19521 C0         648.3458  -530.9613  -428.5800 C0            1 RES     
   19522 C0         648.9889  -532.1696  -427.8769 C0            1 RES     
   19523 C0         648.9275  -533.4525  -428.7217 C0            1 RES     
   19524 C0         649.7873  -533.3723  -429.9958 C0            1 RES     
   19525 C0         649.8277  -534.6949  -430.7770 C0            1 RES     
   19526 C0         648.4708  -535.0949  -431.3568 C0            1 RES     
   19527 C0         643.2843  -530.0592  -425.6708 C0            1 RES     
   19528 C0         643.2271  -528.9085  -424.6265 C0            1 RES     
   19529 C0         641.7882  -528.4329  -424.3567 C0            1 RES     
   19530 C0         641.6253  -527.2659  -423.3968 C0            1 RES     
   19531 C0         641.8599  -527.5488  -421.9196 C0            1 RES     
   19532 C0         641.4673  -526.2727  -421.1474 C0            1 RES     
   19533 C0         641.4915  -526.4196  -419.6249 C0            1 RES     
   19534 C0         640.4036  -527.3660  -419.1153 C0            1 RES     
   19535 H6         643.5940  -527.9734  -428.3539 H6            1 RES     
   19536 H6         643.3643  -529.4303  -429.2241 H6            1 RES     
   19537 H6         643.7753  -530.8600  -427.5639 H6            1 RES     
   19538 H6         645.3714  -528.3320  -426.7645 H6            1 RES     
   19539 H6         645.6549  -529.3621  -428.2095 H6            1 RES     
   19540 H6         646.2211  -531.3007  -426.7282 H6            1 RES     
   19541 H6         645.9929  -530.2617  -425.2767 H6            1 RES     
   19542 H6         648.3272  -530.4470  -425.7198 H6            1 RES     
   19543 H6         647.7784  -528.7571  -425.8855 H6            1 RES     
   19544 H6         649.4553  -529.3725  -427.5958 H6            1 RES     
   19545 H6         647.9079  -528.8624  -428.3323 H6            1 RES     
   19546 H6         647.2905  -531.2027  -428.8298 H6            1 RES     
   19547 H6         648.8779  -530.7467  -429.5292 H6            1 RES     
   19548 H6         648.4323  -532.3774  -426.9392 H6            1 RES     
   19549 H6         650.0446  -531.9444  -427.6120 H6            1 RES     
   19550 H6         649.3132  -534.2863  -428.0954 H6            1 RES     
   19551 H6         647.8666  -533.6669  -428.9711 H6            1 RES     
   19552 H6         649.4226  -532.5723  -430.6726 H6            1 RES     
   19553 H6         650.8292  -533.1276  -429.6942 H6            1 RES     
   19554 H6         650.2083  -535.5081  -430.1215 H6            1 RES     
   19555 H6         650.5373  -534.5722  -431.6234 H6            1 RES     
   19556 H6         647.7294  -535.2847  -430.5547 H6            1 RES     
   19557 H6         648.0907  -534.2971  -432.0299 H6            1 RES     
   19558 H6         648.5850  -536.0298  -431.9446 H6            1 RES     
   19559 H6         643.9791  -530.8056  -425.2440 H6            1 RES     
   19560 H6         642.3728  -530.6842  -425.6242 H6            1 RES     
   19561 H6         643.5678  -529.3201  -423.6509 H6            1 RES     
   19562 H6         643.9207  -528.0882  -424.9015 H6            1 RES     
   19563 H6         641.1564  -529.2876  -424.0239 H6            1 RES     
   19564 H6         641.3572  -528.0353  -425.2687 H6            1 RES     
   19565 H6         642.2343  -526.4030  -423.7438 H6            1 RES     
   19566 H6         640.5567  -527.0011  -423.4551 H6            1 RES     
   19567 H6         641.2056  -528.3978  -421.6292 H6            1 RES     
   19568 H6         642.9187  -527.8196  -421.7257 H6            1 RES     
   19569 H6         642.1706  -525.4625  -421.4408 H6            1 RES     
   19570 H6         640.4410  -525.9473  -421.4353 H6            1 RES     
   19571 H6         641.2884  -525.4151  -419.1927 H6            1 RES     
   19572 H6         642.4931  -526.7544  -419.2895 H6            1 RES     
   19573 H6         640.5657  -528.4013  -419.4754 H6            1 RES     
   19574 H6         640.4188  -527.3780  -418.0061 H6            1 RES     
   19575 H6         639.4019  -527.0166  -419.4491 H6            1 RES     
   19576 C0         638.8803  -534.2807  -439.8037 C0            1 RES     
   19577 C1         638.9617  -533.0198  -438.9153 C1            1 RES     
   19578 C1         638.9487  -531.8727  -439.6428 C1            1 RES     
   19579 S2         639.1285  -530.4900  -438.7165 S2            1 RES     
   19580 C1         639.2766  -531.3903  -437.2817 C1            1 RES     
   19581 C1         639.1860  -532.7599  -437.5531 C1            1 RES     
   19582 C1         638.8963  -532.2042  -441.0140 C1            1 RES     
   19583 C1         638.9434  -533.5570  -441.1497 C1            1 RES     
   19584 C1         639.0400  -533.9517  -442.4786 C1            1 RES     
   19585 C1         639.0259  -532.8333  -443.3291 C1            1 RES     
   19586 S2         638.9141  -531.3797  -442.4585 S2            1 RES     
   19587 H3         639.3319  -533.4958  -436.7853 H3            1 RES     
   19588 H3         639.1204  -534.9802  -442.8097 H3            1 RES     
   19589 N4         638.3860  -532.4458  -447.0020 N4            1 RES     
   19590 C1         638.1805  -532.4662  -445.6524 C1            1 RES     
   19591 C1         639.2106  -532.8489  -444.7759 C1            1 RES     
   19592 C1         640.4505  -533.1835  -445.3232 C1            1 RES     
   19593 N4         641.5426  -533.5140  -444.5874 N4            1 RES     
   19594 S2         642.6953  -533.7359  -445.7509 S2            1 RES     
   19595 N4         641.8906  -533.4386  -447.1660 N4            1 RES     
   19596 C1         640.6441  -533.1355  -446.7266 C1            1 RES     
   19597 C1         639.5860  -532.7753  -447.5570 C1            1 RES     
   19598 H5         637.2061  -532.1915  -445.2579 H5            1 RES     
   19599 C0         637.5847  -535.1657  -439.7761 C0            1 RES     
   19600 C0         636.1433  -534.8810  -440.3447 C0            1 RES     
   19601 C0         635.2725  -536.1013  -439.8810 C0            1 RES     
   19602 C0         633.8153  -536.1330  -440.3581 C0            1 RES     
   19603 C0         633.0415  -537.3504  -439.7995 C0            1 RES     
   19604 C0         633.5676  -538.7373  -440.2304 C0            1 RES     
   19605 C0         633.6740  -538.9459  -441.7514 C0            1 RES     
   19606 C0         632.3364  -538.7380  -442.4837 C0            1 RES     
   19607 C0         632.4571  -538.8918  -444.0066 C0            1 RES     
   19608 C0         632.7871  -540.3283  -444.4460 C0            1 RES     
   19609 C0         632.7923  -540.4953  -445.9739 C0            1 RES     
   19610 C0         633.9066  -539.7062  -446.6623 C0            1 RES     
   19611 C0         635.4482  -533.5140  -440.0391 C0            1 RES     
   19612 C0         635.0756  -533.1606  -438.5663 C0            1 RES     
   19613 C0         635.7928  -531.8665  -438.1702 C0            1 RES     
   19614 C0         635.8442  -531.4999  -436.6898 C0            1 RES     
   19615 C0         634.5928  -530.8598  -436.1070 C0            1 RES     
   19616 C0         634.8791  -530.5306  -434.6268 C0            1 RES     
   19617 C0         633.7861  -529.7065  -433.9423 C0            1 RES     
   19618 C0         633.7022  -528.2817  -434.4939 C0            1 RES     
   19619 H6         637.4151  -535.4129  -438.7593 H6            1 RES     
   19620 H6         637.8825  -536.1016  -440.3006 H6            1 RES     
   19621 H6         636.2283  -534.9099  -441.4540 H6            1 RES     
   19622 H6         635.2541  -536.1371  -438.7698 H6            1 RES     
   19623 H6         635.7711  -537.0278  -440.2381 H6            1 RES     
   19624 H6         633.7766  -536.1196  -441.4663 H6            1 RES     
   19625 H6         633.2879  -535.2340  -439.9801 H6            1 RES     
   19626 H6         631.9806  -537.2572  -440.1108 H6            1 RES     
   19627 H6         633.0478  -537.3105  -438.6877 H6            1 RES     
   19628 H6         632.8891  -539.5104  -439.8059 H6            1 RES     
   19629 H6         634.5708  -538.9118  -439.7861 H6            1 RES     
   19630 H6         634.4331  -538.2485  -442.1644 H6            1 RES     
   19631 H6         634.0393  -539.9806  -441.9174 H6            1 RES     
   19632 H6         631.9876  -537.7006  -442.3046 H6            1 RES     
   19633 H6         631.5677  -539.4383  -442.0893 H6            1 RES     
   19634 H6         631.4772  -538.6108  -444.4506 H6            1 RES     
   19635 H6         633.2234  -538.1774  -444.3743 H6            1 RES     
   19636 H6         633.7719  -540.6496  -444.0479 H6            1 RES     
   19637 H6         632.0053  -541.0034  -444.0347 H6            1 RES     
   19638 H6         631.8073  -540.1904  -446.3899 H6            1 RES     
   19639 H6         632.9454  -541.5719  -446.2031 H6            1 RES     
   19640 H6         633.7798  -538.6147  -446.5150 H6            1 RES     
   19641 H6         634.8970  -540.0188  -446.2682 H6            1 RES     
   19642 H6         633.8791  -539.9076  -447.7536 H6            1 RES     
   19643 H6         634.5045  -533.4791  -440.6244 H6            1 RES     
   19644 H6         636.0503  -532.7061  -440.5072 H6            1 RES     
   19645 H6         633.9795  -532.9953  -438.4650 H6            1 RES     
   19646 H6         635.3637  -533.9913  -437.8905 H6            1 RES     
   19647 H6         635.4785  -531.0027  -438.7932 H6            1 RES     
   19648 H6         636.8161  -532.0730  -438.4019 H6            1 RES     
   19649 H6         636.1401  -532.3801  -436.1137 H6            1 RES     
   19650 H6         636.6591  -530.7483  -436.5815 H6            1 RES     
   19651 H6         634.3971  -529.9335  -436.6878 H6            1 RES     
   19652 H6         633.7152  -531.5353  -436.1887 H6            1 RES     
   19653 H6         635.0004  -531.4922  -434.0784 H6            1 RES     
   19654 H6         635.8350  -529.9671  -434.5311 H6            1 RES     
   19655 H6         634.0470  -529.6293  -432.8638 H6            1 RES     
   19656 H6         632.8050  -530.2187  -434.0309 H6            1 RES     
   19657 H6         633.4059  -528.2758  -435.5613 H6            1 RES     
   19658 H6         632.9467  -527.7067  -433.9210 H6            1 RES     
   19659 H6         634.6857  -527.7718  -434.3872 H6            1 RES     
   19660 C0         640.1783  -535.1122  -439.4582 C0            1 RES     
   19661 C0         640.2082  -536.5218  -438.7110 C0            1 RES     
   19662 C0         641.6483  -536.6764  -438.1157 C0            1 RES     
   19663 C0         641.9994  -538.0776  -437.5758 C0            1 RES     
   19664 C0         643.4144  -538.1774  -436.9793 C0            1 RES     
   19665 C0         644.5708  -537.8624  -437.9450 C0            1 RES     
   19666 C0         644.5687  -538.6710  -439.2530 C0            1 RES     
   19667 C0         644.5993  -540.1936  -439.0316 C0            1 RES     
   19668 C0         644.5917  -540.9872  -440.3482 C0            1 RES     
   19669 C0         645.8770  -540.7923  -441.1723 C0            1 RES     
   19670 C0         645.9265  -541.6796  -442.4259 C0            1 RES     
   19671 C0         644.8541  -541.3275  -443.4570 C0            1 RES     
   19672 C0         639.1086  -537.0433  -437.6931 C0            1 RES     
   19673 C0         638.9027  -536.3894  -436.2974 C0            1 RES     
   19674 C0         637.6177  -535.5447  -436.2297 C0            1 RES     
   19675 C0         637.3542  -534.8088  -434.9263 C0            1 RES     
   19676 C0         636.9214  -535.6499  -433.7337 C0            1 RES     
   19677 C0         636.5506  -534.6707  -432.6012 C0            1 RES     
   19678 C0         635.9423  -535.3328  -431.3635 C0            1 RES     
   19679 C0         634.5614  -535.9280  -431.6428 C0            1 RES     
   19680 H6         640.8999  -534.4273  -438.9551 H6            1 RES     
   19681 H6         640.7136  -535.3008  -440.4162 H6            1 RES     
   19682 H6         640.1123  -537.2604  -439.5401 H6            1 RES     
   19683 H6         641.7836  -535.9378  -437.2964 H6            1 RES     
   19684 H6         642.3755  -536.4319  -438.9197 H6            1 RES     
   19685 H6         641.8702  -538.8261  -438.3855 H6            1 RES     
   19686 H6         641.3271  -538.3468  -436.7382 H6            1 RES     
   19687 H6         643.5438  -539.2089  -436.5873 H6            1 RES     
   19688 H6         643.4933  -537.4907  -436.1080 H6            1 RES     
   19689 H6         645.5251  -538.0453  -437.4043 H6            1 RES     
   19690 H6         644.5456  -536.7831  -438.2071 H6            1 RES     
   19691 H6         643.6712  -538.4065  -439.8520 H6            1 RES     
   19692 H6         645.4637  -538.3525  -439.8253 H6            1 RES     
   19693 H6         643.6884  -540.4934  -438.4724 H6            1 RES     
   19694 H6         645.4877  -540.4773  -438.4270 H6            1 RES     
   19695 H6         644.5056  -542.0653  -440.0904 H6            1 RES     
   19696 H6         643.6950  -540.6974  -440.9361 H6            1 RES     
   19697 H6         645.9942  -539.7337  -441.4829 H6            1 RES     
   19698 H6         646.7430  -541.0670  -440.5312 H6            1 RES     
   19699 H6         645.8290  -542.7482  -442.1353 H6            1 RES     
   19700 H6         646.9193  -541.5409  -442.9056 H6            1 RES     
   19701 H6         643.8354  -541.4972  -443.0538 H6            1 RES     
   19702 H6         644.9557  -540.2664  -443.7695 H6            1 RES     
   19703 H6         644.9795  -541.9738  -444.3511 H6            1 RES     
   19704 H6         639.3960  -538.0902  -437.4848 H6            1 RES     
   19705 H6         638.1381  -537.2654  -438.1752 H6            1 RES     
   19706 H6         638.7329  -537.2071  -435.5627 H6            1 RES     
   19707 H6         639.8115  -535.8399  -435.9787 H6            1 RES     
   19708 H6         636.7338  -536.1666  -436.4985 H6            1 RES     
   19709 H6         637.6789  -534.7280  -436.9403 H6            1 RES     
   19710 H6         638.2252  -534.1665  -434.6719 H6            1 RES     
   19711 H6         636.4818  -534.1684  -435.1366 H6            1 RES     
   19712 H6         636.0352  -536.2440  -434.0419 H6            1 RES     
   19713 H6         637.7305  -536.3387  -433.4132 H6            1 RES     
   19714 H6         637.4731  -534.1270  -432.3003 H6            1 RES     
   19715 H6         635.8194  -533.9141  -432.9686 H6            1 RES     
   19716 H6         635.8139  -534.5402  -430.5941 H6            1 RES     
   19717 H6         636.6306  -536.1050  -430.9664 H6            1 RES     
   19718 H6         634.6180  -536.7572  -432.3757 H6            1 RES     
   19719 H6         634.1371  -536.3275  -430.6989 H6            1 RES     
   19720 H6         633.8756  -535.1438  -432.0321 H6            1 RES     
   19721 C0         639.7872  -534.1900  -452.8045 C0            1 RES     
   19722 C1         639.7906  -533.4378  -451.4554 C1            1 RES     
   19723 C1         640.3187  -532.1906  -451.5600 C1            1 RES     
   19724 S2         640.4220  -531.3823  -450.0977 S2            1 RES     
   19725 C1         639.7918  -532.7103  -449.2432 C1            1 RES     
   19726 C1         639.5140  -533.7665  -450.1179 C1            1 RES     
   19727 C1         640.7365  -531.9836  -452.8924 C1            1 RES     
   19728 C1         640.5320  -533.1227  -453.6077 C1            1 RES     
   19729 C1         641.0522  -533.0395  -454.8937 C1            1 RES     
   19730 C1         641.6211  -531.7742  -455.1163 C1            1 RES     
   19731 S2         641.5018  -530.7785  -453.7460 S2            1 RES     
   19732 H3         639.1799  -534.7211  -449.7582 H3            1 RES     
   19733 H3         641.0261  -533.8429  -455.6201 H3            1 RES     
   19734 N4         642.5769  -529.9350  -458.2395 N4            1 RES     
   19735 C1         641.8594  -530.3440  -457.1522 C1            1 RES     
   19736 C1         642.3503  -531.3550  -456.3080 C1            1 RES     
   19737 C1         643.5978  -531.9091  -456.6007 C1            1 RES     
   19738 N4         644.2108  -532.8491  -455.8364 N4            1 RES     
   19739 S2         645.6472  -533.0608  -456.6262 S2            1 RES     
   19740 N4         645.5499  -532.0199  -457.9090 N4            1 RES     
   19741 C1         644.3319  -531.4533  -457.7243 C1            1 RES     
   19742 C1         643.7930  -530.4675  -458.5467 C1            1 RES     
   19743 H5         640.8956  -529.8861  -456.9474 H5            1 RES     
   19744 C0         638.4237  -534.4895  -453.5212 C0            1 RES     
   19745 C0         637.4231  -533.5188  -454.2552 C0            1 RES     
   19746 C0         636.1935  -534.4143  -454.6405 C0            1 RES     
   19747 C0         635.0727  -533.7428  -455.4438 C0            1 RES     
   19748 C0         633.8930  -534.7042  -455.7215 C0            1 RES     
   19749 C0         634.2245  -535.9460  -456.5782 C0            1 RES     
   19750 C0         634.8701  -535.6393  -457.9410 C0            1 RES     
   19751 C0         634.0093  -534.7165  -458.8221 C0            1 RES     
   19752 C0         634.6806  -534.3669  -460.1580 C0            1 RES     
   19753 C0         634.8293  -535.5769  -461.0958 C0            1 RES     
   19754 C0         635.3965  -535.1947  -462.4723 C0            1 RES     
   19755 C0         636.8362  -534.6833  -462.4097 C0            1 RES     
   19756 C0         636.9855  -532.1890  -453.5586 C0            1 RES     
   19757 C0         636.1533  -532.2564  -452.2412 C0            1 RES     
   19758 C0         636.9249  -531.5382  -451.1299 C0            1 RES     
   19759 C0         636.4711  -531.7522  -449.6887 C0            1 RES     
   19760 C0         635.2670  -530.9423  -449.2308 C0            1 RES     
   19761 C0         635.0148  -531.2746  -447.7451 C0            1 RES     
   19762 C0         633.9531  -530.3990  -447.0755 C0            1 RES     
   19763 C0         634.4103  -528.9467  -446.9231 C0            1 RES     
   19764 H6         637.8185  -534.9924  -452.8109 H6            1 RES     
   19765 H6         638.6880  -535.2257  -454.3136 H6            1 RES     
   19766 H6         637.9279  -533.1914  -455.1915 H6            1 RES     
   19767 H6         635.7330  -534.8227  -453.7144 H6            1 RES     
   19768 H6         636.5733  -535.2738  -455.2332 H6            1 RES     
   19769 H6         635.4760  -533.3339  -456.3925 H6            1 RES     
   19770 H6         634.6527  -532.9037  -454.8533 H6            1 RES     
   19771 H6         633.0887  -534.1273  -456.2230 H6            1 RES     
   19772 H6         633.4713  -535.0564  -454.7541 H6            1 RES     
   19773 H6         633.2809  -536.5121  -456.7441 H6            1 RES     
   19774 H6         634.9071  -536.6179  -456.0153 H6            1 RES     
   19775 H6         635.8642  -535.1721  -457.7784 H6            1 RES     
   19776 H6         635.0321  -536.6096  -458.4548 H6            1 RES     
   19777 H6         633.8575  -533.7544  -458.2916 H6            1 RES     
   19778 H6         633.0132  -535.1761  -459.0044 H6            1 RES     
   19779 H6         634.0423  -533.6117  -460.6664 H6            1 RES     
   19780 H6         635.6672  -533.9035  -459.9472 H6            1 RES     
   19781 H6         635.4811  -536.3528  -460.6436 H6            1 RES     
   19782 H6         633.8204  -536.0158  -461.2559 H6            1 RES     
   19783 H6         634.7479  -534.4266  -462.9474 H6            1 RES     
   19784 H6         635.3846  -536.1016  -463.1146 H6            1 RES     
   19785 H6         636.9070  -533.7449  -461.8237 H6            1 RES     
   19786 H6         637.4964  -535.4524  -461.9554 H6            1 RES     
   19787 H6         637.1952  -534.4698  -463.4383 H6            1 RES     
   19788 H6         636.3805  -531.6107  -454.2893 H6            1 RES     
   19789 H6         637.8857  -531.5497  -453.4342 H6            1 RES     
   19790 H6         635.1716  -531.7471  -452.3676 H6            1 RES     
   19791 H6         635.9612  -533.3132  -451.9654 H6            1 RES     
   19792 H6         637.0801  -530.4615  -451.3526 H6            1 RES     
   19793 H6         637.8835  -532.0114  -451.1523 H6            1 RES     
   19794 H6         636.3142  -532.8202  -449.5183 H6            1 RES     
   19795 H6         637.3225  -531.4390  -449.0426 H6            1 RES     
   19796 H6         635.5254  -529.8697  -449.3581 H6            1 RES     
   19797 H6         634.3660  -531.1761  -449.8362 H6            1 RES     
   19798 H6         634.6949  -532.3394  -447.6808 H6            1 RES     
   19799 H6         635.9555  -531.1711  -447.1577 H6            1 RES     
   19800 H6         633.7799  -530.8008  -446.0529 H6            1 RES     
   19801 H6         632.9984  -530.4513  -447.6401 H6            1 RES     
   19802 H6         634.5659  -528.4640  -447.9080 H6            1 RES     
   19803 H6         633.6384  -528.3713  -446.3729 H6            1 RES     
   19804 H6         635.3594  -528.9034  -446.3434 H6            1 RES     
   19805 C0         640.6261  -535.5034  -452.5456 C0            1 RES     
   19806 C0         640.0473  -536.9903  -452.5386 C0            1 RES     
   19807 C0         641.0652  -537.8573  -451.7234 C0            1 RES     
   19808 C0         640.8563  -539.3830  -451.8050 C0            1 RES     
   19809 C0         641.8634  -540.1939  -450.9705 C0            1 RES     
   19810 C0         643.3444  -540.0115  -451.3477 C0            1 RES     
   19811 C0         643.6766  -540.2571  -452.8289 C0            1 RES     
   19812 C0         643.2797  -541.6600  -453.3211 C0            1 RES     
   19813 C0         643.6137  -541.8876  -454.8043 C0            1 RES     
   19814 C0         645.1276  -541.9052  -455.0813 C0            1 RES     
   19815 C0         645.4671  -542.2563  -456.5383 C0            1 RES     
   19816 C0         644.9924  -541.2028  -457.5392 C0            1 RES     
   19817 C0         638.5508  -537.3899  -452.1954 C0            1 RES     
   19818 C0         637.9642  -537.2322  -450.7640 C0            1 RES     
   19819 C0         636.9776  -536.0551  -450.6613 C0            1 RES     
   19820 C0         636.3941  -535.7736  -449.2866 C0            1 RES     
   19821 C0         635.3533  -536.7539  -448.7641 C0            1 RES     
   19822 C0         634.7949  -536.1638  -447.4531 C0            1 RES     
   19823 C0         633.6195  -536.9408  -446.8573 C0            1 RES     
   19824 C0         632.3645  -536.8525  -447.7269 C0            1 RES     
   19825 H6         641.2247  -535.3500  -451.6176 H6            1 RES     
   19826 H6         641.4381  -535.5311  -453.3071 H6            1 RES     
   19827 H6         640.1235  -537.3065  -453.6046 H6            1 RES     
   19828 H6         641.0281  -537.5521  -450.6553 H6            1 RES     
   19829 H6         642.0840  -537.6345  -452.1072 H6            1 RES     
   19830 H6         640.8928  -539.7023  -452.8677 H6            1 RES     
   19831 H6         639.8678  -539.6589  -451.3892 H6            1 RES     
   19832 H6         641.5965  -541.2678  -451.0691 H6            1 RES     
   19833 H6         641.7441  -539.9308  -449.8965 H6            1 RES     
   19834 H6         643.9436  -540.7061  -450.7192 H6            1 RES     
   19835 H6         643.6639  -538.9793  -451.0894 H6            1 RES     
   19836 H6         643.1690  -539.4927  -453.4553 H6            1 RES     
   19837 H6         644.7707  -540.1119  -452.9378 H6            1 RES     
   19838 H6         642.1807  -541.7787  -453.2190 H6            1 RES     
   19839 H6         643.7727  -542.4397  -452.7010 H6            1 RES     
   19840 H6         643.1968  -542.8765  -455.0949 H6            1 RES     
   19841 H6         643.1081  -541.1055  -455.4096 H6            1 RES     
   19842 H6         645.5887  -540.9262  -454.8364 H6            1 RES     
   19843 H6         645.5883  -542.6814  -454.4319 H6            1 RES     
   19844 H6         645.0293  -543.2442  -456.7996 H6            1 RES     
   19845 H6         646.5724  -542.3344  -456.6240 H6            1 RES     
   19846 H6         643.8872  -541.1156  -457.5395 H6            1 RES     
   19847 H6         645.4408  -540.2153  -457.2989 H6            1 RES     
   19848 H6         645.3120  -541.4979  -458.5607 H6            1 RES     
   19849 H6         638.4937  -538.4716  -452.4161 H6            1 RES     
   19850 H6         637.8244  -537.0595  -452.9615 H6            1 RES     
   19851 H6         637.3432  -538.1304  -450.5523 H6            1 RES     
   19852 H6         638.7722  -537.2006  -450.0053 H6            1 RES     
   19853 H6         636.1562  -536.1756  -451.4036 H6            1 RES     
   19854 H6         637.4920  -535.1264  -450.8814 H6            1 RES     
   19855 H6         637.2141  -535.6258  -448.5506 H6            1 RES     
   19856 H6         635.8396  -534.8280  -449.4049 H6            1 RES     
   19857 H6         634.5515  -536.8359  -449.5281 H6            1 RES     
   19858 H6         635.7973  -537.7562  -448.5902 H6            1 RES     
   19859 H6         635.6208  -536.1361  -446.7086 H6            1 RES     
   19860 H6         634.4540  -535.1153  -447.6157 H6            1 RES     
   19861 H6         633.3786  -536.4751  -445.8765 H6            1 RES     
   19862 H6         633.9071  -537.9974  -446.6876 H6            1 RES     
   19863 H6         632.5189  -537.3362  -448.7118 H6            1 RES     
   19864 H6         631.5268  -537.3685  -447.2143 H6            1 RES     
   19865 H6         632.0787  -535.7892  -447.8839 H6            1 RES     
   19866 C0         645.7181  -529.9489  -463.6066 C0            1 RES     
   19867 C1         645.3585  -529.7668  -462.1156 C1            1 RES     
   19868 C1         646.1472  -528.8467  -461.5019 C1            1 RES     
   19869 S2         645.8448  -528.6919  -459.8627 S2            1 RES     
   19870 C1         644.6527  -529.9037  -459.9006 C1            1 RES     
   19871 C1         644.5139  -530.4118  -461.1968 C1            1 RES     
   19872 C1         647.0889  -528.3602  -462.4343 C1            1 RES     
   19873 C1         646.9346  -529.0220  -463.6130 C1            1 RES     
   19874 C1         647.9221  -528.6961  -464.5350 C1            1 RES     
   19875 C1         648.7976  -527.7345  -464.0030 C1            1 RES     
   19876 S2         648.3740  -527.3044  -462.4159 S2            1 RES     
   19877 H3         643.8630  -531.2385  -461.4097 H3            1 RES     
   19878 H3         648.0057  -529.1294  -465.5245 H3            1 RES     
   19879 N4         651.2838  -525.4160  -465.5823 N4            1 RES     
   19880 C1         650.1260  -525.8824  -465.0288 C1            1 RES     
   19881 C1         650.0090  -527.2275  -464.6379 C1            1 RES     
   19882 C1         651.1148  -528.0619  -464.8107 C1            1 RES     
   19883 N4         651.1539  -529.3628  -464.4238 N4            1 RES     
   19884 S2         652.6992  -529.7988  -464.8158 S2            1 RES     
   19885 N4         653.3463  -528.4205  -465.4638 N4            1 RES     
   19886 C1         652.3120  -527.5487  -465.3696 C1            1 RES     
   19887 C1         652.3720  -526.2153  -465.7660 C1            1 RES     
   19888 H5         649.2867  -525.2045  -464.8999 H5            1 RES     
   19889 C0         644.7157  -529.4602  -464.7108 C0            1 RES     
   19890 C0         644.3256  -528.0014  -465.1597 C0            1 RES     
   19891 C0         643.1806  -528.1912  -466.2159 C0            1 RES     
   19892 C0         642.6440  -526.9228  -466.8908 C0            1 RES     
   19893 C0         641.4869  -527.2251  -467.8719 C0            1 RES     
   19894 C0         641.8439  -528.1230  -469.0769 C0            1 RES     
   19895 C0         643.0228  -527.6234  -469.9305 C0            1 RES     
   19896 C0         642.8046  -526.2063  -470.4897 C0            1 RES     
   19897 C0         644.0055  -525.6883  -471.2941 C0            1 RES     
   19898 C0         644.2382  -526.4637  -472.6019 C0            1 RES     
   19899 C0         645.3692  -525.8655  -473.4534 C0            1 RES     
   19900 C0         646.7433  -525.9728  -472.7910 C0            1 RES     
   19901 C0         643.9562  -526.9331  -464.0792 C0            1 RES     
   19902 C0         642.6814  -527.1420  -463.2051 C0            1 RES     
   19903 C0         643.0933  -527.1885  -461.7306 C0            1 RES     
   19904 C0         642.0753  -527.7054  -460.7181 C0            1 RES     
   19905 C0         641.0001  -526.7229  -460.2771 C0            1 RES     
   19906 C0         640.1184  -527.4313  -459.2273 C0            1 RES     
   19907 C0         639.1019  -526.5174  -458.5391 C0            1 RES     
   19908 C0         639.7719  -525.4831  -457.6322 C0            1 RES     
   19909 H6         643.7853  -529.9185  -464.4916 H6            1 RES     
   19910 H6         645.0995  -529.9190  -465.6499 H6            1 RES     
   19911 H6         645.2161  -527.5797  -465.6772 H6            1 RES     
   19912 H6         642.3157  -528.6955  -465.7321 H6            1 RES     
   19913 H6         643.5618  -528.8679  -467.0103 H6            1 RES     
   19914 H6         643.4669  -526.3893  -467.4086 H6            1 RES     
   19915 H6         642.2233  -526.2482  -466.1180 H6            1 RES     
   19916 H6         641.0935  -526.2587  -468.2493 H6            1 RES     
   19917 H6         640.6527  -527.7093  -467.3173 H6            1 RES     
   19918 H6         640.9411  -528.2090  -469.7221 H6            1 RES     
   19919 H6         642.0835  -529.1481  -468.7220 H6            1 RES     
   19920 H6         643.9500  -527.6403  -469.3196 H6            1 RES     
   19921 H6         643.1541  -528.3432  -470.7648 H6            1 RES     
   19922 H6         642.6741  -525.5030  -469.6422 H6            1 RES     
   19923 H6         641.8851  -526.1753  -471.1144 H6            1 RES     
   19924 H6         643.8024  -524.6263  -471.5532 H6            1 RES     
   19925 H6         644.9062  -525.7223  -470.6460 H6            1 RES     
   19926 H6         644.4706  -527.5292  -472.3964 H6            1 RES     
   19927 H6         643.3030  -526.4179  -473.2015 H6            1 RES     
   19928 H6         645.1468  -524.8001  -473.6810 H6            1 RES     
   19929 H6         645.4097  -526.4225  -474.4143 H6            1 RES     
   19930 H6         646.7844  -525.3907  -471.8483 H6            1 RES     
   19931 H6         646.9840  -527.0361  -472.5786 H6            1 RES     
   19932 H6         647.5146  -525.5642  -473.4769 H6            1 RES     
   19933 H6         643.8309  -525.9593  -464.5991 H6            1 RES     
   19934 H6         644.8526  -526.7537  -463.4477 H6            1 RES     
   19935 H6         641.9675  -526.2986  -463.3399 H6            1 RES     
   19936 H6         642.1676  -528.0799  -463.4986 H6            1 RES     
   19937 H6         643.5578  -526.2382  -461.3925 H6            1 RES     
   19938 H6         643.8530  -527.9406  -461.7123 H6            1 RES     
   19939 H6         641.6318  -528.6294  -461.0971 H6            1 RES     
   19940 H6         642.6513  -527.9701  -459.8022 H6            1 RES     
   19941 H6         641.5184  -525.8470  -459.8326 H6            1 RES     
   19942 H6         640.3815  -526.3855  -461.1354 H6            1 RES     
   19943 H6         639.5717  -528.2561  -459.7382 H6            1 RES     
   19944 H6         640.7506  -527.8896  -458.4331 H6            1 RES     
   19945 H6         638.4570  -527.1546  -457.8947 H6            1 RES     
   19946 H6         638.4596  -526.0177  -459.2944 H6            1 RES     
   19947 H6         640.4042  -524.7825  -458.2124 H6            1 RES     
   19948 H6         638.9945  -524.8935  -457.1053 H6            1 RES     
   19949 H6         640.4014  -525.9938  -456.8695 H6            1 RES     
   19950 C0         646.0745  -531.4803  -463.7601 C0            1 RES     
   19951 C0         645.2256  -532.5551  -464.5787 C0            1 RES     
   19952 C0         645.6223  -533.9589  -464.0091 C0            1 RES     
   19953 C0         645.1298  -535.1721  -464.8237 C0            1 RES     
   19954 C0         645.5218  -536.5300  -464.2151 C0            1 RES     
   19955 C0         647.0323  -536.7846  -464.0655 C0            1 RES     
   19956 C0         647.8557  -536.6063  -465.3519 C0            1 RES     
   19957 C0         647.3836  -537.5027  -466.5103 C0            1 RES     
   19958 C0         648.2133  -537.3088  -467.7898 C0            1 RES     
   19959 C0         649.6696  -537.7829  -467.6367 C0            1 RES     
   19960 C0         650.4666  -537.7068  -468.9483 C0            1 RES     
   19961 C0         650.6689  -536.2768  -469.4494 C0            1 RES     
   19962 C0         643.6664  -532.4707  -464.8596 C0            1 RES     
   19963 C0         642.6161  -532.6145  -463.7220 C0            1 RES     
   19964 C0         641.9558  -531.2718  -463.3608 C0            1 RES     
   19965 C0         640.9578  -531.2900  -462.2148 C0            1 RES     
   19966 C0         639.6065  -531.9363  -462.4860 C0            1 RES     
   19967 C0         638.7243  -531.6752  -461.2481 C0            1 RES     
   19968 C0         637.2691  -532.1218  -461.4002 C0            1 RES     
   19969 C0         636.5094  -531.2851  -462.4307 C0            1 RES     
   19970 H6         646.2787  -531.8879  -462.7427 H6            1 RES     
   19971 H6         647.0920  -531.5384  -464.2086 H6            1 RES     
   19972 H6         645.6418  -532.4876  -465.6104 H6            1 RES     
   19973 H6         645.2377  -534.0509  -462.9704 H6            1 RES     
   19974 H6         646.7317  -534.0069  -463.9681 H6            1 RES     
   19975 H6         645.5086  -535.0938  -465.8643 H6            1 RES     
   19976 H6         644.0231  -535.1920  -464.8534 H6            1 RES     
   19977 H6         645.0842  -537.3259  -464.8549 H6            1 RES     
   19978 H6         645.0521  -536.6304  -463.2119 H6            1 RES     
   19979 H6         647.1667  -537.8215  -463.6869 H6            1 RES     
   19980 H6         647.4449  -536.0993  -463.2946 H6            1 RES     
   19981 H6         647.8176  -535.5435  -465.6731 H6            1 RES     
   19982 H6         648.9073  -536.8441  -465.0920 H6            1 RES     
   19983 H6         646.3362  -537.2379  -466.7652 H6            1 RES     
   19984 H6         647.4077  -538.5712  -466.2051 H6            1 RES     
   19985 H6         647.7361  -537.9098  -468.5943 H6            1 RES     
   19986 H6         648.1727  -536.2387  -468.0845 H6            1 RES     
   19987 H6         650.2020  -537.1908  -466.8641 H6            1 RES     
   19988 H6         649.6541  -538.8467  -467.3135 H6            1 RES     
   19989 H6         649.9595  -538.3094  -469.7329 H6            1 RES     
   19990 H6         651.4697  -538.1496  -468.7667 H6            1 RES     
   19991 H6         649.7017  -535.7964  -469.7001 H6            1 RES     
   19992 H6         651.1937  -535.6711  -468.6802 H6            1 RES     
   19993 H6         651.2897  -536.2955  -470.3697 H6            1 RES     
   19994 H6         643.4623  -533.3079  -465.5520 H6            1 RES     
   19995 H6         643.3917  -531.6543  -465.5536 H6            1 RES     
   19996 H6         641.7796  -533.2360  -464.1108 H6            1 RES     
   19997 H6         643.0467  -533.1456  -462.8491 H6            1 RES     
   19998 H6         641.4870  -530.8182  -464.2635 H6            1 RES     
   19999 H6         642.7071  -530.5818  -462.9933 H6            1 RES     
   20000 H6         641.4338  -531.7172  -461.3055 H6            1 RES     
   20001 H6         640.7188  -530.2292  -462.0333 H6            1 RES     
   20002 H6         639.1723  -531.4492  -463.3846 H6            1 RES     
   20003 H6         639.7125  -533.0249  -462.6748 H6            1 RES     
   20004 H6         639.1756  -532.2113  -460.3844 H6            1 RES     
   20005 H6         638.7161  -530.5883  -461.0018 H6            1 RES     
   20006 H6         636.7724  -531.9704  -460.4167 H6            1 RES     
   20007 H6         637.2251  -533.1986  -461.6581 H6            1 RES     
   20008 H6         636.9266  -531.4189  -463.4485 H6            1 RES     
   20009 H6         635.4462  -531.6012  -462.4470 H6            1 RES     
   20010 H6         636.5515  -530.2076  -462.1584 H6            1 RES     
   20011 C0         656.1909  -524.7231  -469.3391 C0            1 RES     
   20012 C1         655.3252  -524.9496  -468.0802 C1            1 RES     
   20013 C1         655.9923  -524.6559  -466.9339 C1            1 RES     
   20014 S2         655.1135  -524.9781  -465.5461 S2            1 RES     
   20015 C1         653.7956  -525.5751  -466.4393 C1            1 RES     
   20016 C1         654.0677  -525.5150  -467.8104 C1            1 RES     
   20017 C1         657.3066  -524.2582  -467.2615 C1            1 RES     
   20018 C1         657.4848  -524.3658  -468.6060 C1            1 RES     
   20019 C1         658.8003  -524.1273  -468.9854 C1            1 RES     
   20020 C1         659.5862  -523.8013  -467.8672 C1            1 RES     
   20021 S2         658.6805  -523.8234  -466.4310 S2            1 RES     
   20022 H3         653.3871  -525.9170  -468.5367 H3            1 RES     
   20023 H3         659.1672  -524.1902  -470.0028 H3            1 RES     
   20024 N4         662.9390  -522.1633  -467.5121 N4            1 RES     
   20025 C1         661.5850  -522.3334  -467.5551 C1            1 RES     
   20026 C1         661.0291  -523.5876  -467.8611 C1            1 RES     
   20027 C1         661.8991  -524.6538  -468.0958 C1            1 RES     
   20028 N4         661.4940  -525.9257  -468.3443 N4            1 RES     
   20029 S2         662.9308  -526.7329  -468.4703 S2            1 RES     
   20030 N4         664.0681  -525.5553  -468.2293 N4            1 RES     
   20031 C1         663.3010  -524.4559  -468.0259 C1            1 RES     
   20032 C1         663.8055  -523.1889  -467.7448 C1            1 RES     
   20033 H5         660.9352  -521.4849  -467.3587 H5            1 RES     
   20034 C0         655.8376  -523.5519  -470.3221 C0            1 RES     
   20035 C0         655.9887  -521.9936  -470.1471 C0            1 RES     
   20036 C0         655.3389  -521.3729  -471.4335 C0            1 RES     
   20037 C0         655.4057  -519.8472  -471.5758 C0            1 RES     
   20038 C0         654.6907  -519.3453  -472.8523 C0            1 RES     
   20039 C0         655.2832  -519.8350  -474.1920 C0            1 RES     
   20040 C0         656.7813  -519.5402  -474.3842 C0            1 RES     
   20041 C0         657.1199  -518.0427  -474.2770 C0            1 RES     
   20042 C0         658.6224  -517.7571  -474.4133 C0            1 RES     
   20043 C0         659.1714  -518.0601  -475.8177 C0            1 RES     
   20044 C0         660.6478  -517.6632  -475.9761 C0            1 RES     
   20045 C0         661.5908  -518.4883  -475.0995 C0            1 RES     
   20046 C0         655.4716  -521.3090  -468.8397 C0            1 RES     
   20047 C0         653.9443  -521.3247  -468.5236 C0            1 RES     
   20048 C0         653.7232  -522.0255  -467.1798 C0            1 RES     
   20049 C0         652.3025  -522.4492  -466.8177 C0            1 RES     
   20050 C0         651.3874  -521.3591  -466.2795 C0            1 RES     
   20051 C0         650.0314  -522.0109  -465.9365 C0            1 RES     
   20052 C0         649.0563  -521.0870  -465.2031 C0            1 RES     
   20053 C0         649.5278  -520.7526  -463.7864 C0            1 RES     
   20054 H6         654.8195  -523.6828  -470.5867 H6            1 RES     
   20055 H6         656.4470  -523.7642  -471.2294 H6            1 RES     
   20056 H6         657.0801  -521.7766  -470.1638 H6            1 RES     
   20057 H6         654.2652  -521.6589  -471.4762 H6            1 RES     
   20058 H6         655.8410  -521.8225  -472.3168 H6            1 RES     
   20059 H6         656.4617  -519.5088  -471.5598 H6            1 RES     
   20060 H6         654.8764  -519.3776  -470.7222 H6            1 RES     
   20061 H6         654.7017  -518.2357  -472.8400 H6            1 RES     
   20062 H6         653.6211  -519.6497  -472.8176 H6            1 RES     
   20063 H6         654.7115  -519.3555  -475.0176 H6            1 RES     
   20064 H6         655.1308  -520.9311  -474.2904 H6            1 RES     
   20065 H6         657.3657  -520.1057  -473.6279 H6            1 RES     
   20066 H6         657.0664  -519.9217  -475.3866 H6            1 RES     
   20067 H6         656.8266  -517.6805  -473.2706 H6            1 RES     
   20068 H6         656.5510  -517.4631  -475.0367 H6            1 RES     
   20069 H6         658.7781  -516.6758  -474.2069 H6            1 RES     
   20070 H6         659.1646  -518.3406  -473.6398 H6            1 RES     
   20071 H6         659.0623  -519.1367  -476.0636 H6            1 RES     
   20072 H6         658.5820  -517.4706  -476.5534 H6            1 RES     
   20073 H6         660.7746  -516.5827  -475.7464 H6            1 RES     
   20074 H6         660.9376  -517.8270  -477.0364 H6            1 RES     
   20075 H6         661.3866  -518.3265  -474.0219 H6            1 RES     
   20076 H6         661.4867  -519.5685  -475.3364 H6            1 RES     
   20077 H6         662.6390  -518.1809  -475.2970 H6            1 RES     
   20078 H6         655.7795  -520.2421  -468.8752 H6            1 RES     
   20079 H6         656.0638  -521.7008  -467.9851 H6            1 RES     
   20080 H6         653.5468  -520.2880  -468.4443 H6            1 RES     
   20081 H6         653.3930  -521.8451  -469.3329 H6            1 RES     
   20082 H6         654.2157  -521.4917  -466.3399 H6            1 RES     
   20083 H6         654.2275  -522.9600  -467.3052 H6            1 RES     
   20084 H6         651.8506  -522.9539  -467.6752 H6            1 RES     
   20085 H6         652.3987  -523.2055  -466.0058 H6            1 RES     
   20086 H6         651.8697  -520.9460  -465.3683 H6            1 RES     
   20087 H6         651.2467  -520.5442  -467.0206 H6            1 RES     
   20088 H6         649.5610  -522.3465  -466.8885 H6            1 RES     
   20089 H6         650.1826  -522.9131  -465.3010 H6            1 RES     
   20090 H6         648.0866  -521.6240  -465.1113 H6            1 RES     
   20091 H6         648.8900  -520.1589  -465.7893 H6            1 RES     
   20092 H6         650.4752  -520.1784  -463.7981 H6            1 RES     
   20093 H6         648.7577  -520.1406  -463.2745 H6            1 RES     
   20094 H6         649.6773  -521.6881  -463.2022 H6            1 RES     
   20095 C0         656.2300  -526.1234  -470.0692 C0            1 RES     
   20096 C0         655.5552  -526.4579  -471.4760 C0            1 RES     
   20097 C0         655.3749  -528.0128  -471.5214 C0            1 RES     
   20098 C0         654.9860  -528.5988  -472.8938 C0            1 RES     
   20099 C0         654.7963  -530.1259  -472.8866 C0            1 RES     
   20100 C0         656.0297  -530.9509  -472.4780 C0            1 RES     
   20101 C0         657.3090  -530.6538  -473.2778 C0            1 RES     
   20102 C0         657.1435  -530.8546  -474.7945 C0            1 RES     
   20103 C0         658.4292  -530.5487  -475.5797 C0            1 RES     
   20104 C0         659.5642  -531.5447  -475.2817 C0            1 RES     
   20105 C0         660.8072  -531.3175  -476.1561 C0            1 RES     
   20106 C0         661.5012  -529.9830  -475.8831 C0            1 RES     
   20107 C0         654.2922  -525.7167  -472.0862 C0            1 RES     
   20108 C0         652.8763  -525.8494  -471.4572 C0            1 RES     
   20109 C0         652.4427  -524.5725  -470.7151 C0            1 RES     
   20110 C0         651.0980  -524.6189  -470.0084 C0            1 RES     
   20111 C0         649.8549  -524.5883  -470.8865 C0            1 RES     
   20112 C0         648.6395  -524.4676  -469.9446 C0            1 RES     
   20113 C0         647.3011  -524.2677  -470.6581 C0            1 RES     
   20114 C0         647.2127  -522.9103  -471.3572 C0            1 RES     
   20115 H6         655.9228  -526.9022  -469.3329 H6            1 RES     
   20116 H6         657.3015  -526.3914  -470.2109 H6            1 RES     
   20117 H6         656.3466  -526.1954  -472.2155 H6            1 RES     
   20118 H6         654.6036  -528.3106  -470.7786 H6            1 RES     
   20119 H6         656.3386  -528.4750  -471.2172 H6            1 RES     
   20120 H6         655.7499  -528.3102  -473.6460 H6            1 RES     
   20121 H6         654.0053  -528.2003  -473.2185 H6            1 RES     
   20122 H6         654.4804  -530.4319  -473.9068 H6            1 RES     
   20123 H6         653.9611  -530.3874  -472.2002 H6            1 RES     
   20124 H6         655.7714  -532.0268  -472.5891 H6            1 RES     
   20125 H6         656.2473  -530.7767  -471.4026 H6            1 RES     
   20126 H6         657.6366  -529.6106  -473.0807 H6            1 RES     
   20127 H6         658.0932  -531.3343  -472.8879 H6            1 RES     
   20128 H6         656.3672  -530.1540  -475.1668 H6            1 RES     
   20129 H6         656.8085  -531.8920  -475.0115 H6            1 RES     
   20130 H6         658.1857  -530.6149  -476.6625 H6            1 RES     
   20131 H6         658.7457  -529.5075  -475.3574 H6            1 RES     
   20132 H6         659.8675  -531.4954  -474.2156 H6            1 RES     
   20133 H6         659.1879  -532.5697  -475.4915 H6            1 RES     
   20134 H6         660.5287  -531.3810  -477.2305 H6            1 RES     
   20135 H6         661.5333  -532.1302  -475.9385 H6            1 RES     
   20136 H6         660.8426  -529.1270  -476.1332 H6            1 RES     
   20137 H6         661.8021  -529.9180  -474.8158 H6            1 RES     
   20138 H6         662.4124  -529.9084  -476.5132 H6            1 RES     
   20139 H6         654.1963  -526.1257  -473.1087 H6            1 RES     
   20140 H6         654.5002  -524.6708  -472.3805 H6            1 RES     
   20141 H6         652.1444  -525.9454  -472.2893 H6            1 RES     
   20142 H6         652.8006  -526.7677  -470.8405 H6            1 RES     
   20143 H6         652.4789  -523.6968  -471.4023 H6            1 RES     
   20144 H6         653.1220  -524.3788  -469.8926 H6            1 RES     
   20145 H6         651.0715  -525.4767  -469.3018 H6            1 RES     
   20146 H6         651.0485  -523.6777  -469.4365 H6            1 RES     
   20147 H6         649.9278  -523.6977  -471.5459 H6            1 RES     
   20148 H6         649.7825  -525.5022  -471.5121 H6            1 RES     
   20149 H6         648.5847  -525.3947  -469.3326 H6            1 RES     
   20150 H6         648.7763  -523.6108  -469.2452 H6            1 RES     
   20151 H6         646.5054  -524.2949  -469.8816 H6            1 RES     
   20152 H6         647.1245  -525.0926  -471.3766 H6            1 RES     
   20153 H6         647.9548  -522.8268  -472.1758 H6            1 RES     
   20154 H6         646.1999  -522.7881  -471.7930 H6            1 RES     
   20155 H6         647.3821  -522.0891  -470.6266 H6            1 RES     
   20156 C0         668.9473  -522.0636  -469.1133 C0            1 RES     
   20157 C1         667.6303  -522.3773  -468.3699 C1            1 RES     
   20158 C1         667.8412  -522.7643  -467.0850 C1            1 RES     
   20159 S2         666.4407  -523.2006  -466.2784 S2            1 RES     
   20160 C1         665.4824  -522.9246  -467.6556 C1            1 RES     
   20161 C1         666.2766  -522.4983  -468.7257 C1            1 RES     
   20162 C1         669.2311  -522.7891  -466.8395 C1            1 RES     
   20163 C1         669.8939  -522.4824  -467.9874 C1            1 RES     
   20164 C1         671.2700  -522.6271  -467.8577 C1            1 RES     
   20165 C1         671.6050  -523.0201  -466.5510 C1            1 RES     
   20166 S2         670.2281  -523.2039  -465.5744 S2            1 RES     
   20167 H3         665.8649  -522.3452  -469.7051 H3            1 RES     
   20168 H3         671.9828  -522.4641  -468.6571 H3            1 RES     
   20169 N4         674.8217  -522.9562  -464.6277 N4            1 RES     
   20170 C1         673.5922  -522.5922  -465.0965 C1            1 RES     
   20171 C1         672.9381  -523.3662  -466.0706 C1            1 RES     
   20172 C1         673.5707  -524.5248  -466.5248 C1            1 RES     
   20173 N4         673.0247  -525.3892  -467.4183 N4            1 RES     
   20174 S2         674.1780  -526.5693  -467.5139 S2            1 RES     
   20175 N4         675.3596  -526.0521  -466.4774 N4            1 RES     
   20176 C1         674.8386  -524.8916  -466.0078 C1            1 RES     
   20177 C1         675.4593  -524.0791  -465.0627 C1            1 RES     
   20178 H5         673.1231  -521.6891  -464.7157 H5            1 RES     
   20179 C0         669.2771  -520.5825  -469.5140 C0            1 RES     
   20180 C0         669.6885  -519.3522  -468.6202 C0            1 RES     
   20181 C0         669.7508  -518.1332  -469.6064 C0            1 RES     
   20182 C0         670.2042  -516.7905  -469.0198 C0            1 RES     
   20183 C0         670.1780  -515.6536  -470.0684 C0            1 RES     
   20184 C0         671.1242  -515.8305  -471.2764 C0            1 RES     
   20185 C0         672.6022  -516.0583  -470.9138 C0            1 RES     
   20186 C0         673.1942  -514.9258  -470.0561 C0            1 RES     
   20187 C0         674.6522  -515.1824  -469.6489 C0            1 RES     
   20188 C0         675.6263  -515.1597  -470.8389 C0            1 RES     
   20189 C0         677.0944  -515.3030  -470.4071 C0            1 RES     
   20190 C0         677.4095  -516.6642  -469.7858 C0            1 RES     
   20191 C0         668.8656  -519.0235  -467.3318 C0            1 RES     
   20192 C0         667.3747  -518.5867  -467.4702 C0            1 RES     
   20193 C0         666.4947  -519.5758  -466.6999 C0            1 RES     
   20194 C0         664.9905  -519.5465  -466.9556 C0            1 RES     
   20195 C0         664.2039  -518.4556  -466.2438 C0            1 RES     
   20196 C0         662.7143  -518.6405  -466.6021 C0            1 RES     
   20197 C0         661.7608  -517.7388  -465.8148 C0            1 RES     
   20198 C0         661.6999  -518.1125  -464.3322 C0            1 RES     
   20199 H6         668.4430  -520.2311  -470.0659 H6            1 RES     
   20200 H6         670.1301  -520.6754  -470.2235 H6            1 RES     
   20201 H6         670.7175  -519.5589  -468.2499 H6            1 RES     
   20202 H6         668.7456  -517.9721  -470.0539 H6            1 RES     
   20203 H6         670.4460  -518.4001  -470.4309 H6            1 RES     
   20204 H6         671.2156  -516.8905  -468.5761 H6            1 RES     
   20205 H6         669.5008  -516.4860  -468.2187 H6            1 RES     
   20206 H6         670.4288  -514.7034  -469.5531 H6            1 RES     
   20207 H6         669.1421  -515.5367  -470.4571 H6            1 RES     
   20208 H6         671.0439  -514.9214  -471.9131 H6            1 RES     
   20209 H6         670.7838  -516.6875  -471.8962 H6            1 RES     
   20210 H6         672.7019  -517.0223  -470.3717 H6            1 RES     
   20211 H6         673.1656  -516.1457  -471.8660 H6            1 RES     
   20212 H6         672.6178  -514.8533  -469.1114 H6            1 RES     
   20213 H6         673.1129  -513.9540  -470.5906 H6            1 RES     
   20214 H6         674.9499  -514.3766  -468.9429 H6            1 RES     
   20215 H6         674.7036  -516.1525  -469.1114 H6            1 RES     
   20216 H6         675.3869  -515.9646  -471.5643 H6            1 RES     
   20217 H6         675.5195  -514.1801  -471.3539 H6            1 RES     
   20218 H6         677.3569  -514.4954  -469.6892 H6            1 RES     
   20219 H6         677.7329  -515.1839  -471.3089 H6            1 RES     
   20220 H6         676.8402  -516.8223  -468.8477 H6            1 RES     
   20221 H6         677.1702  -517.4774  -470.5037 H6            1 RES     
   20222 H6         678.4909  -516.7144  -469.5400 H6            1 RES     
   20223 H6         669.3908  -518.2024  -466.7986 H6            1 RES     
   20224 H6         668.9722  -519.8743  -466.6253 H6            1 RES     
   20225 H6         667.2183  -517.5729  -467.0378 H6            1 RES     
   20226 H6         667.0847  -518.5545  -468.5400 H6            1 RES     
   20227 H6         666.7231  -519.5855  -465.6133 H6            1 RES     
   20228 H6         666.7871  -520.5244  -467.0971 H6            1 RES     
   20229 H6         664.8117  -519.5204  -468.0333 H6            1 RES     
   20230 H6         664.5903  -520.5158  -466.5805 H6            1 RES     
   20231 H6         664.3685  -518.5905  -465.1537 H6            1 RES     
   20232 H6         664.5496  -517.4439  -466.5437 H6            1 RES     
   20233 H6         662.5937  -518.4289  -467.6888 H6            1 RES     
   20234 H6         662.4001  -519.6950  -466.4289 H6            1 RES     
   20235 H6         660.7401  -517.8791  -466.2339 H6            1 RES     
   20236 H6         662.0480  -516.6734  -465.9382 H6            1 RES     
   20237 H6         662.6775  -517.9595  -463.8339 H6            1 RES     
   20238 H6         660.9472  -517.4786  -463.8211 H6            1 RES     
   20239 H6         661.3969  -519.1773  -464.2184 H6            1 RES     
   20240 C0         668.9584  -523.0351  -470.3589 C0            1 RES     
   20241 C0         668.8339  -522.5904  -471.8863 C0            1 RES     
   20242 C0         668.3462  -523.8519  -472.6759 C0            1 RES     
   20243 C0         668.4078  -523.7410  -474.2127 C0            1 RES     
   20244 C0         667.8972  -524.9932  -474.9472 C0            1 RES     
   20245 C0         668.6552  -526.2991  -474.6486 C0            1 RES     
   20246 C0         670.1770  -526.2345  -474.8603 C0            1 RES     
   20247 C0         670.5798  -525.8230  -476.2873 C0            1 RES     
   20248 C0         672.1035  -525.7583  -476.4809 C0            1 RES     
   20249 C0         672.7791  -527.1375  -476.3797 C0            1 RES     
   20250 C0         674.2822  -527.0943  -476.6961 C0            1 RES     
   20251 C0         675.0903  -526.2902  -475.6776 C0            1 RES     
   20252 C0         668.1101  -521.2764  -472.4024 C0            1 RES     
   20253 C0         666.5699  -521.0898  -472.2978 C0            1 RES     
   20254 C0         666.1745  -520.0845  -471.2014 C0            1 RES     
   20255 C0         664.6864  -519.8763  -470.9728 C0            1 RES     
   20256 C0         663.9281  -519.0909  -472.0335 C0            1 RES     
   20257 C0         662.5002  -518.8669  -471.4950 C0            1 RES     
   20258 C0         661.6297  -517.9572  -472.3638 C0            1 RES     
   20259 C0         662.1258  -516.5105  -472.3688 C0            1 RES     
   20260 H6         668.2227  -523.8499  -470.1643 H6            1 RES     
   20261 H6         669.9112  -523.6101  -470.3198 H6            1 RES     
   20262 H6         669.8887  -522.3978  -472.1903 H6            1 RES     
   20263 H6         667.3003  -524.0834  -472.3798 H6            1 RES     
   20264 H6         668.9848  -524.7093  -472.3728 H6            1 RES     
   20265 H6         669.4488  -523.5115  -474.5229 H6            1 RES     
   20266 H6         667.7480  -522.9253  -474.5664 H6            1 RES     
   20267 H6         667.9478  -524.7891  -476.0381 H6            1 RES     
   20268 H6         666.8244  -525.1505  -474.6996 H6            1 RES     
   20269 H6         668.2299  -527.0954  -475.2979 H6            1 RES     
   20270 H6         668.4662  -526.6001  -473.5961 H6            1 RES     
   20271 H6         670.6232  -525.5216  -474.1344 H6            1 RES     
   20272 H6         670.5733  -527.2445  -474.6301 H6            1 RES     
   20273 H6         670.1881  -524.8046  -476.4913 H6            1 RES     
   20274 H6         670.1361  -526.5214  -477.0295 H6            1 RES     
   20275 H6         672.2963  -525.3519  -477.4976 H6            1 RES     
   20276 H6         672.5295  -525.0516  -475.7373 H6            1 RES     
   20277 H6         672.6425  -527.5747  -475.3691 H6            1 RES     
   20278 H6         672.2984  -527.8126  -477.1210 H6            1 RES     
   20279 H6         674.4411  -526.6757  -477.7136 H6            1 RES     
   20280 H6         674.6649  -528.1376  -476.6878 H6            1 RES     
   20281 H6         674.7901  -525.2229  -475.6763 H6            1 RES     
   20282 H6         674.9545  -526.7133  -474.6595 H6            1 RES     
   20283 H6         676.1675  -526.3417  -475.9419 H6            1 RES     
   20284 H6         668.3350  -521.2411  -473.4842 H6            1 RES     
   20285 H6         668.6429  -520.3474  -472.1256 H6            1 RES     
   20286 H6         666.2217  -520.6169  -473.2425 H6            1 RES     
   20287 H6         666.0568  -522.0686  -472.2075 H6            1 RES     
   20288 H6         666.6705  -519.1037  -471.3815 H6            1 RES     
   20289 H6         666.5011  -520.4504  -470.2344 H6            1 RES     
   20290 H6         664.1955  -520.8520  -470.7655 H6            1 RES     
   20291 H6         664.6264  -519.2428  -470.0725 H6            1 RES     
   20292 H6         664.4492  -518.1202  -472.1735 H6            1 RES     
   20293 H6         663.9064  -519.6375  -472.9992 H6            1 RES     
   20294 H6         662.0057  -519.8594  -471.4071 H6            1 RES     
   20295 H6         662.5377  -518.4188  -470.4753 H6            1 RES     
   20296 H6         660.6085  -517.9577  -471.9231 H6            1 RES     
   20297 H6         661.5711  -518.3567  -473.3957 H6            1 RES     
   20298 H6         663.1280  -516.4273  -472.8341 H6            1 RES     
   20299 H6         661.4197  -515.8833  -472.9507 H6            1 RES     
   20300 H6         662.1723  -516.1158  -471.3300 H6            1 RES     
   20301 C0         680.8359  -524.5176  -464.3710 C0            1 RES     
   20302 C1         679.2989  -524.5632  -464.2248 C1            1 RES     
   20303 C1         678.8973  -525.4190  -463.2494 C1            1 RES     
   20304 S2         677.2339  -525.5617  -463.1268 S2            1 RES     
   20305 C1         676.9799  -524.4961  -464.4271 C1            1 RES     
   20306 C1         678.2033  -524.0488  -464.9380 C1            1 RES     
   20307 C1         680.0363  -526.0345  -462.6868 C1            1 RES     
   20308 C1         681.1463  -525.6155  -463.3525 C1            1 RES     
   20309 C1         682.2918  -526.2895  -462.9465 C1            1 RES     
   20310 C1         681.9912  -527.2035  -461.9225 C1            1 RES     
   20311 S2         680.3380  -527.1955  -461.5346 S2            1 RES     
   20312 H3         678.2540  -523.4270  -465.8116 H3            1 RES     
   20313 H3         683.2780  -526.1334  -463.3670 H3            1 RES     
   20314 N4         684.1223  -528.9918  -459.4104 N4            1 RES     
   20315 C1         683.2892  -528.0648  -459.9679 C1            1 RES     
   20316 C1         682.9160  -528.1570  -461.3200 C1            1 RES     
   20317 C1         683.4023  -529.2326  -462.0653 C1            1 RES     
   20318 N4         683.0740  -529.4703  -463.3611 N4            1 RES     
   20319 S2         683.8796  -530.8792  -463.6741 S2            1 RES     
   20320 N4         684.6423  -531.2237  -462.2465 N4            1 RES     
   20321 C1         684.2501  -530.1926  -461.4580 C1            1 RES     
   20322 C1         684.6134  -530.0450  -460.1219 C1            1 RES     
   20323 H5         682.9211  -527.2444  -459.3578 H5            1 RES     
   20324 C0         681.6156  -523.2205  -463.9560 C0            1 RES     
   20325 C0         681.9048  -522.6174  -462.5296 C0            1 RES     
   20326 C0         682.6174  -521.2462  -462.8023 C0            1 RES     
   20327 C0         683.0895  -520.4553  -461.5760 C0            1 RES     
   20328 C0         683.7294  -519.1010  -461.9622 C0            1 RES     
   20329 C0         685.0089  -519.1828  -462.8237 C0            1 RES     
   20330 C0         686.1357  -520.0464  -462.2299 C0            1 RES     
   20331 C0         686.5785  -519.5815  -460.8312 C0            1 RES     
   20332 C0         687.6635  -520.4782  -460.2177 C0            1 RES     
   20333 C0         689.0051  -520.4040  -460.9662 C0            1 RES     
   20334 C0         690.1145  -521.2149  -460.2778 C0            1 RES     
   20335 C0         689.8504  -522.7211  -460.2815 C0            1 RES     
   20336 C0         680.7375  -522.4774  -461.4987 C0            1 RES     
   20337 C0         679.5576  -521.5061  -461.8101 C0            1 RES     
   20338 C0         678.2506  -522.3044  -461.8319 C0            1 RES     
   20339 C0         677.0146  -521.6397  -462.4312 C0            1 RES     
   20340 C0         676.2747  -520.6553  -461.5374 C0            1 RES     
   20341 C0         675.0446  -520.1454  -462.3171 C0            1 RES     
   20342 C0         674.0842  -519.2893  -461.4883 C0            1 RES     
   20343 C0         673.3654  -520.1024  -460.4097 C0            1 RES     
   20344 H6         681.1654  -522.4205  -464.4862 H6            1 RES     
   20345 H6         682.6349  -523.3679  -464.3790 H6            1 RES     
   20346 H6         682.6323  -523.3010  -462.0376 H6            1 RES     
   20347 H6         681.9313  -520.5841  -463.3746 H6            1 RES     
   20348 H6         683.5024  -521.4464  -463.4435 H6            1 RES     
   20349 H6         683.7962  -521.0657  -460.9777 H6            1 RES     
   20350 H6         682.2147  -520.2115  -460.9400 H6            1 RES     
   20351 H6         683.9617  -518.5502  -461.0273 H6            1 RES     
   20352 H6         682.9831  -518.4861  -462.5125 H6            1 RES     
   20353 H6         685.3885  -518.1479  -462.9762 H6            1 RES     
   20354 H6         684.7584  -519.5841  -463.8290 H6            1 RES     
   20355 H6         685.7984  -521.1031  -462.1779 H6            1 RES     
   20356 H6         686.9928  -519.9991  -462.9332 H6            1 RES     
   20357 H6         685.7093  -519.6344  -460.1444 H6            1 RES     
   20358 H6         686.9309  -518.5275  -460.8685 H6            1 RES     
   20359 H6         687.8307  -520.1352  -459.1733 H6            1 RES     
   20360 H6         687.2835  -521.5209  -460.1849 H6            1 RES     
   20361 H6         688.8976  -520.7608  -462.0114 H6            1 RES     
   20362 H6         689.3288  -519.3405  -460.9900 H6            1 RES     
   20363 H6         690.2460  -520.8617  -459.2317 H6            1 RES     
   20364 H6         691.0647  -521.0341  -460.8251 H6            1 RES     
   20365 H6         688.9391  -522.9734  -459.7027 H6            1 RES     
   20366 H6         689.7383  -523.0876  -461.3240 H6            1 RES     
   20367 H6         690.7082  -523.2456  -459.8109 H6            1 RES     
   20368 H6         681.1790  -522.1449  -460.5349 H6            1 RES     
   20369 H6         680.3669  -523.4958  -461.2534 H6            1 RES     
   20370 H6         679.4729  -520.7226  -461.0240 H6            1 RES     
   20371 H6         679.7256  -521.0022  -462.7835 H6            1 RES     
   20372 H6         678.0259  -522.7722  -460.8502 H6            1 RES     
   20373 H6         678.4573  -523.0937  -462.5230 H6            1 RES     
   20374 H6         677.2836  -521.1790  -463.3849 H6            1 RES     
   20375 H6         676.2953  -522.4601  -462.6551 H6            1 RES     
   20376 H6         675.9640  -521.2090  -460.6261 H6            1 RES     
   20377 H6         676.9252  -519.8042  -461.2446 H6            1 RES     
   20378 H6         675.4102  -519.5427  -463.1793 H6            1 RES     
   20379 H6         674.4625  -521.0010  -462.7291 H6            1 RES     
   20380 H6         673.3064  -518.8917  -462.1768 H6            1 RES     
   20381 H6         674.6251  -518.4315  -461.0362 H6            1 RES     
   20382 H6         674.0764  -520.5007  -459.6593 H6            1 RES     
   20383 H6         672.6333  -519.4558  -459.8848 H6            1 RES     
   20384 H6         672.8143  -520.9507  -460.8739 H6            1 RES     
   20385 C0         681.1193  -524.9302  -465.8694 C0            1 RES     
   20386 C0         681.7060  -523.9724  -467.0027 C0            1 RES     
   20387 C0         681.3009  -524.6104  -468.3743 C0            1 RES     
   20388 C0         681.9835  -524.0059  -469.6179 C0            1 RES     
   20389 C0         681.5385  -524.6466  -470.9445 C0            1 RES     
   20390 C0         681.8087  -526.1556  -471.0819 C0            1 RES     
   20391 C0         683.2645  -526.5841  -470.8339 C0            1 RES     
   20392 C0         684.2752  -525.8828  -471.7583 C0            1 RES     
   20393 C0         685.7257  -526.3181  -471.4943 C0            1 RES     
   20394 C0         685.9836  -527.7921  -471.8548 C0            1 RES     
   20395 C0         687.4592  -528.1960  -471.7106 C0            1 RES     
   20396 C0         687.9591  -528.1496  -470.2666 C0            1 RES     
   20397 C0         681.5534  -522.3937  -467.0380 C0            1 RES     
   20398 C0         680.1788  -521.7044  -467.2685 C0            1 RES     
   20399 C0         679.6183  -521.0701  -465.9829 C0            1 RES     
   20400 C0         678.2463  -520.4242  -466.0842 C0            1 RES     
   20401 C0         678.1595  -519.1011  -466.8319 C0            1 RES     
   20402 C0         676.7231  -518.5707  -466.6462 C0            1 RES     
   20403 C0         676.4884  -517.1656  -467.2036 C0            1 RES     
   20404 C0         677.2538  -516.0959  -466.4231 C0            1 RES     
   20405 H6         680.2056  -525.4319  -466.2651 H6            1 RES     
   20406 H6         681.8271  -525.7896  -465.8462 H6            1 RES     
   20407 H6         682.8096  -524.0874  -466.8979 H6            1 RES     
   20408 H6         680.1997  -524.5296  -468.5011 H6            1 RES     
   20409 H6         681.5621  -525.6899  -468.3364 H6            1 RES     
   20410 H6         683.0853  -524.0818  -469.5054 H6            1 RES     
   20411 H6         681.7140  -522.9371  -469.7235 H6            1 RES     
   20412 H6         682.0569  -524.1116  -471.7687 H6            1 RES     
   20413 H6         680.4487  -524.4750  -471.0860 H6            1 RES     
   20414 H6         681.5072  -526.4632  -472.1071 H6            1 RES     
   20415 H6         681.1602  -526.7102  -470.3706 H6            1 RES     
   20416 H6         683.5360  -526.3827  -469.7755 H6            1 RES     
   20417 H6         683.3042  -527.6813  -470.9907 H6            1 RES     
   20418 H6         684.2312  -524.7890  -471.5742 H6            1 RES     
   20419 H6         684.0156  -526.0669  -472.8233 H6            1 RES     
   20420 H6         686.3869  -525.6862  -472.1265 H6            1 RES     
   20421 H6         685.9708  -526.1209  -470.4291 H6            1 RES     
   20422 H6         685.3683  -528.4691  -471.2270 H6            1 RES     
   20423 H6         685.6958  -527.9428  -472.9182 H6            1 RES     
   20424 H6         688.0930  -527.5408  -472.3468 H6            1 RES     
   20425 H6         687.5664  -529.2404  -472.0751 H6            1 RES     
   20426 H6         687.9271  -527.1182  -469.8615 H6            1 RES     
   20427 H6         687.3447  -528.8174  -469.6259 H6            1 RES     
   20428 H6         689.0130  -528.4974  -470.2326 H6            1 RES     
   20429 H6         682.1865  -522.0715  -467.8851 H6            1 RES     
   20430 H6         682.1263  -521.8820  -466.2420 H6            1 RES     
   20431 H6         680.3434  -520.8417  -467.9511 H6            1 RES     
   20432 H6         679.4684  -522.3932  -467.7690 H6            1 RES     
   20433 H6         680.3490  -520.3424  -465.5625 H6            1 RES     
   20434 H6         679.4494  -521.8403  -465.2386 H6            1 RES     
   20435 H6         677.5106  -521.1588  -466.4778 H6            1 RES     
   20436 H6         677.9798  -520.1662  -465.0460 H6            1 RES     
   20437 H6         678.8947  -518.4052  -466.3755 H6            1 RES     
   20438 H6         678.3979  -519.2315  -467.9081 H6            1 RES     
   20439 H6         676.0273  -519.2773  -467.1501 H6            1 RES     
   20440 H6         676.4558  -518.5499  -465.5645 H6            1 RES     
   20441 H6         675.4038  -516.9443  -467.0961 H6            1 RES     
   20442 H6         676.7526  -517.1324  -468.2792 H6            1 RES     
   20443 H6         678.3495  -516.2302  -466.5192 H6            1 RES     
   20444 H6         676.9908  -515.0942  -466.8206 H6            1 RES     
   20445 H6         676.9752  -516.1311  -465.3470 H6            1 RES     
   20446 C0         689.0446  -532.6327  -458.3203 C0            1 RES     
   20447 C1         687.6051  -532.1595  -458.6195 C1            1 RES     
   20448 C1         686.6742  -533.0890  -458.2807 C1            1 RES     
   20449 S2         685.1095  -532.6452  -458.6770 S2            1 RES     
   20450 C1         685.6291  -531.1820  -459.3699 C1            1 RES     
   20451 C1         687.0208  -531.0672  -459.2821 C1            1 RES     
   20452 C1         687.3339  -534.2324  -457.7807 C1            1 RES     
   20453 C1         688.6789  -534.0470  -457.8674 C1            1 RES     
   20454 C1         689.3928  -535.1893  -457.5257 C1            1 RES     
   20455 C1         688.5202  -536.2227  -457.1454 C1            1 RES     
   20456 S2         686.8939  -535.7443  -457.2448 S2            1 RES     
   20457 H3         687.5466  -530.2466  -459.7320 H3            1 RES     
   20458 H3         690.4728  -535.2703  -457.5548 H3            1 RES     
   20459 N4         689.0407  -539.4169  -455.2541 N4            1 RES     
   20460 C1         688.7212  -538.1181  -455.5284 C1            1 RES     
   20461 C1         688.8981  -537.5936  -456.8205 C1            1 RES     
   20462 C1         689.3863  -538.4432  -457.8148 C1            1 RES     
   20463 N4         689.5491  -538.0802  -459.1130 N4            1 RES     
   20464 S2         690.0789  -539.4842  -459.8058 S2            1 RES     
   20465 N4         690.1233  -540.5548  -458.5447 N4            1 RES     
   20466 C1         689.6922  -539.7931  -457.5091 C1            1 RES     
   20467 C1         689.5250  -540.2606  -456.2082 C1            1 RES     
   20468 H5         688.3349  -537.4855  -454.7339 H5            1 RES     
   20469 C0         689.8652  -531.9413  -457.1751 C0            1 RES     
   20470 C0         689.6973  -532.0195  -455.6106 C0            1 RES     
   20471 C0         690.7443  -531.0017  -455.0358 C0            1 RES     
   20472 C0         690.8598  -530.9155  -453.5088 C0            1 RES     
   20473 C0         691.8827  -529.8465  -453.0574 C0            1 RES     
   20474 C0         693.3448  -530.0880  -453.4931 C0            1 RES     
   20475 C0         693.9263  -531.4522  -453.0820 C0            1 RES     
   20476 C0         693.8759  -531.6965  -451.5634 C0            1 RES     
   20477 C0         694.4051  -533.0806  -451.1614 C0            1 RES     
   20478 C0         695.9129  -533.2492  -451.4139 C0            1 RES     
   20479 C0         696.4535  -534.5942  -450.9029 C0            1 RES     
   20480 C0         695.8855  -535.7973  -451.6568 C0            1 RES     
   20481 C0         688.2817  -531.8274  -454.9748 C0            1 RES     
   20482 C0         687.5658  -530.4484  -455.1104 C0            1 RES     
   20483 C0         686.2307  -530.6516  -455.8330 C0            1 RES     
   20484 C0         685.5098  -529.4173  -456.3674 C0            1 RES     
   20485 C0         684.7166  -528.6049  -455.3542 C0            1 RES     
   20486 C0         684.0374  -527.4442  -456.1109 C0            1 RES     
   20487 C0         683.0445  -526.6394  -455.2691 C0            1 RES     
   20488 C0         681.7994  -527.4514  -454.9062 C0            1 RES     
   20489 H6         689.8486  -530.9020  -457.3832 H6            1 RES     
   20490 H6         690.9085  -532.2959  -457.3349 H6            1 RES     
   20491 H6         690.0023  -533.0466  -455.3096 H6            1 RES     
   20492 H6         690.5030  -529.9806  -455.4040 H6            1 RES     
   20493 H6         691.7416  -531.2772  -455.4407 H6            1 RES     
   20494 H6         691.1207  -531.9085  -453.0896 H6            1 RES     
   20495 H6         689.8833  -530.6043  -453.0859 H6            1 RES     
   20496 H6         691.8452  -529.7790  -451.9505 H6            1 RES     
   20497 H6         691.5685  -528.8517  -453.4441 H6            1 RES     
   20498 H6         693.9728  -529.2804  -453.0552 H6            1 RES     
   20499 H6         693.4267  -529.9953  -454.5971 H6            1 RES     
   20500 H6         693.3707  -532.2594  -453.6043 H6            1 RES     
   20501 H6         694.9780  -531.4821  -453.4352 H6            1 RES     
   20502 H6         692.8187  -531.6612  -451.2300 H6            1 RES     
   20503 H6         694.4386  -530.9021  -451.0258 H6            1 RES     
   20504 H6         694.2205  -533.2067  -450.0723 H6            1 RES     
   20505 H6         693.8220  -533.8535  -451.7050 H6            1 RES     
   20506 H6         696.1479  -533.1567  -452.4944 H6            1 RES     
   20507 H6         696.4468  -532.4409  -450.8682 H6            1 RES     
   20508 H6         696.2387  -534.6989  -449.8170 H6            1 RES     
   20509 H6         697.5565  -534.5969  -451.0384 H6            1 RES     
   20510 H6         694.7889  -535.8815  -451.5167 H6            1 RES     
   20511 H6         696.1132  -535.7124  -452.7406 H6            1 RES     
   20512 H6         696.3504  -536.7273  -451.2680 H6            1 RES     
   20513 H6         688.3714  -532.0351  -453.8871 H6            1 RES     
   20514 H6         687.6291  -532.6561  -455.3237 H6            1 RES     
   20515 H6         687.3554  -530.0123  -454.1081 H6            1 RES     
   20516 H6         688.2094  -529.7380  -455.6680 H6            1 RES     
   20517 H6         685.5413  -531.3128  -455.2669 H6            1 RES     
   20518 H6         686.5116  -531.1702  -456.7249 H6            1 RES     
   20519 H6         686.2262  -528.7882  -456.9013 H6            1 RES     
   20520 H6         684.7737  -529.7851  -457.1180 H6            1 RES     
   20521 H6         683.9590  -529.2845  -454.9095 H6            1 RES     
   20522 H6         685.3710  -528.2093  -454.5490 H6            1 RES     
   20523 H6         684.8356  -526.7594  -456.4772 H6            1 RES     
   20524 H6         683.4898  -527.8277  -457.0018 H6            1 RES     
   20525 H6         682.7084  -525.7729  -455.8801 H6            1 RES     
   20526 H6         683.5400  -526.2529  -454.3537 H6            1 RES     
   20527 H6         682.0515  -528.3154  -454.2603 H6            1 RES     
   20528 H6         681.0831  -526.8061  -454.3583 H6            1 RES     
   20529 H6         681.3016  -527.8217  -455.8302 H6            1 RES     
   20530 C0         689.7941  -532.5749  -459.7097 C0            1 RES     
   20531 C0         690.9748  -531.5706  -460.0884 C0            1 RES     
   20532 C0         691.0100  -531.4991  -461.6524 C0            1 RES     
   20533 C0         692.2412  -530.7969  -462.2599 C0            1 RES     
   20534 C0         692.2225  -530.7287  -463.7971 C0            1 RES     
   20535 C0         692.1833  -532.0837  -464.5261 C0            1 RES     
   20536 C0         693.2907  -533.0730  -464.1266 C0            1 RES     
   20537 C0         694.7111  -532.5178  -464.3321 C0            1 RES     
   20538 C0         695.8060  -533.5166  -463.9235 C0            1 RES     
   20539 C0         695.8510  -534.7597  -464.8299 C0            1 RES     
   20540 C0         697.0223  -535.6991  -464.5027 C0            1 RES     
   20541 C0         696.9123  -536.3414  -463.1198 C0            1 RES     
   20542 C0         691.2022  -530.1386  -459.4443 C0            1 RES     
   20543 C0         690.2182  -528.9599  -459.6896 C0            1 RES     
   20544 C0         689.3539  -528.6512  -458.4539 C0            1 RES     
   20545 C0         688.3120  -527.5555  -458.6079 C0            1 RES     
   20546 C0         688.8210  -526.1223  -458.6694 C0            1 RES     
   20547 C0         687.5834  -525.2021  -458.6480 C0            1 RES     
   20548 C0         687.9039  -523.7095  -458.5490 C0            1 RES     
   20549 C0         688.5179  -523.3357  -457.1990 C0            1 RES     
   20550 H6         689.0226  -532.5367  -460.5136 H6            1 RES     
   20551 H6         690.2265  -533.5846  -459.8930 H6            1 RES     
   20552 H6         691.8934  -532.1104  -459.7616 H6            1 RES     
   20553 H6         690.0946  -530.9820  -462.0128 H6            1 RES     
   20554 H6         690.9891  -532.5404  -462.0399 H6            1 RES     
   20555 H6         693.1639  -531.3050  -461.9092 H6            1 RES     
   20556 H6         692.2789  -529.7385  -461.9370 H6            1 RES     
   20557 H6         693.1272  -530.1715  -464.1216 H6            1 RES     
   20558 H6         691.3432  -530.1323  -464.1260 H6            1 RES     
   20559 H6         692.2484  -531.8845  -465.6181 H6            1 RES     
   20560 H6         691.2025  -532.5712  -464.3408 H6            1 RES     
   20561 H6         693.1624  -533.3643  -463.0622 H6            1 RES     
   20562 H6         693.1446  -533.9812  -464.7462 H6            1 RES     
   20563 H6         694.8419  -531.6205  -463.6919 H6            1 RES     
   20564 H6         694.8564  -532.2135  -465.3912 H6            1 RES     
   20565 H6         696.7843  -532.9943  -464.0030 H6            1 RES     
   20566 H6         695.6505  -533.8043  -462.8620 H6            1 RES     
   20567 H6         694.9054  -535.3361  -464.7626 H6            1 RES     
   20568 H6         695.9780  -534.4168  -465.8800 H6            1 RES     
   20569 H6         697.9829  -535.1453  -464.5822 H6            1 RES     
   20570 H6         697.0297  -536.5145  -465.2577 H6            1 RES     
   20571 H6         696.9533  -535.5787  -462.3162 H6            1 RES     
   20572 H6         695.9644  -536.9146  -463.0370 H6            1 RES     
   20573 H6         697.7627  -537.0397  -462.9716 H6            1 RES     
   20574 H6         692.1711  -529.7994  -459.8545 H6            1 RES     
   20575 H6         691.5146  -530.1818  -458.3840 H6            1 RES     
   20576 H6         690.8241  -528.0390  -459.8379 H6            1 RES     
   20577 H6         689.6278  -529.1216  -460.6141 H6            1 RES     
   20578 H6         690.0025  -528.4356  -457.5746 H6            1 RES     
   20579 H6         688.7404  -529.5119  -458.2122 H6            1 RES     
   20580 H6         687.6468  -527.7845  -459.4688 H6            1 RES     
   20581 H6         687.7238  -527.5940  -457.6763 H6            1 RES     
   20582 H6         689.4524  -525.9482  -457.7726 H6            1 RES     
   20583 H6         689.4272  -525.9501  -459.5831 H6            1 RES     
   20584 H6         687.0034  -525.3833  -459.5797 H6            1 RES     
   20585 H6         686.9249  -525.4602  -457.7868 H6            1 RES     
   20586 H6         686.9424  -523.1582  -458.6417 H6            1 RES     
   20587 H6         688.5690  -523.4058  -459.3815 H6            1 RES     
   20588 H6         689.5039  -523.8200  -457.0542 H6            1 RES     
   20589 H6         688.6609  -522.2366  -457.1536 H6            1 RES     
   20590 H6         687.8391  -523.6362  -456.3708 H6            1 RES     
   20591 C0         692.2006  -544.7423  -454.6807 C0            1 RES     
   20592 C1         691.1378  -543.7027  -455.0994 C1            1 RES     
   20593 C1         689.9679  -544.2817  -455.4753 C1            1 RES     
   20594 S2         688.8249  -543.1881  -456.0229 S2            1 RES     
   20595 C1         689.8848  -541.8749  -455.8152 C1            1 RES     
   20596 C1         691.1181  -542.3159  -455.3232 C1            1 RES     
   20597 C1         690.1073  -545.6841  -455.3934 C1            1 RES     
   20598 C1         691.3831  -545.9866  -455.0306 C1            1 RES     
   20599 C1         691.6333  -547.3531  -455.0688 C1            1 RES     
   20600 C1         690.4760  -548.0576  -455.4411 C1            1 RES     
   20601 S2         689.1692  -547.0142  -455.7361 S2            1 RES     
   20602 H3         691.9459  -541.6441  -455.1976 H3            1 RES     
   20603 H3         692.5909  -547.8087  -454.8469 H3            1 RES     
   20604 N4         689.4910  -551.6615  -455.1376 N4            1 RES     
   20605 C1         689.6011  -550.3277  -454.8677 C1            1 RES     
   20606 C1         690.3822  -549.4926  -455.6852 C1            1 RES     
   20607 C1         691.0200  -550.0616  -456.7890 C1            1 RES     
   20608 N4         691.7551  -549.3588  -457.6886 N4            1 RES     
   20609 S2         692.1888  -550.5263  -458.7753 S2            1 RES     
   20610 N4         691.4965  -551.9034  -458.1732 N4            1 RES     
   20611 C1         690.8740  -551.4455  -457.0589 C1            1 RES     
   20612 C1         690.1107  -552.2379  -456.2055 C1            1 RES     
   20613 H5         689.0847  -549.9145  -454.0056 H5            1 RES     
   20614 C0         692.6371  -544.8416  -453.1766 C0            1 RES     
   20615 C0         691.8560  -545.3886  -451.9226 C0            1 RES     
   20616 C0         692.7905  -545.0917  -450.6975 C0            1 RES     
   20617 C0         692.3136  -545.5875  -449.3267 C0            1 RES     
   20618 C0         693.2865  -545.1949  -448.1899 C0            1 RES     
   20619 C0         694.7092  -545.7886  -448.2869 C0            1 RES     
   20620 C0         694.7648  -547.3222  -448.4012 C0            1 RES     
   20621 C0         694.0698  -548.0398  -447.2305 C0            1 RES     
   20622 C0         694.0778  -549.5683  -447.3753 C0            1 RES     
   20623 C0         695.4855  -550.1791  -447.2712 C0            1 RES     
   20624 C0         695.4697  -551.7157  -447.3023 C0            1 RES     
   20625 C0         694.9919  -552.2862  -448.6382 C0            1 RES     
   20626 C0         690.3853  -544.9239  -451.6651 C0            1 RES     
   20627 C0         690.1049  -543.4234  -451.3446 C0            1 RES     
   20628 C0         689.1515  -542.8600  -452.4027 C0            1 RES     
   20629 C0         688.9911  -541.3449  -452.4889 C0            1 RES     
   20630 C0         688.0655  -540.7029  -451.4659 C0            1 RES     
   20631 C0         688.0132  -539.1897  -451.7639 C0            1 RES     
   20632 C0         686.9748  -538.4218  -450.9428 C0            1 RES     
   20633 C0         685.5410  -538.7925  -451.3275 C0            1 RES     
   20634 H6         692.9341  -543.8658  -452.8881 H6            1 RES     
   20635 H6         693.5526  -545.4749  -453.1995 H6            1 RES     
   20636 H6         691.7825  -546.4917  -452.0507 H6            1 RES     
   20637 H6         692.9459  -543.9939  -450.6126 H6            1 RES     
   20638 H6         693.7787  -545.5551  -450.9055 H6            1 RES     
   20639 H6         692.1620  -546.6858  -449.3502 H6            1 RES     
   20640 H6         691.3449  -545.1072  -449.0816 H6            1 RES     
   20641 H6         692.8336  -545.5056  -447.2257 H6            1 RES     
   20642 H6         693.3782  -544.0867  -448.1518 H6            1 RES     
   20643 H6         695.2769  -545.4723  -447.3836 H6            1 RES     
   20644 H6         695.2360  -545.3567  -449.1646 H6            1 RES     
   20645 H6         694.2949  -547.6353  -449.3573 H6            1 RES     
   20646 H6         695.8356  -547.6112  -448.4399 H6            1 RES     
   20647 H6         693.0030  -547.7373  -447.2077 H6            1 RES     
   20648 H6         694.5372  -547.7456  -446.2653 H6            1 RES     
   20649 H6         693.4578  -549.9862  -446.5524 H6            1 RES     
   20650 H6         693.5993  -549.8344  -448.3412 H6            1 RES     
   20651 H6         696.1399  -549.8117  -448.0886 H6            1 RES     
   20652 H6         695.9272  -549.8651  -446.3003 H6            1 RES     
   20653 H6         694.8287  -552.1029  -446.4805 H6            1 RES     
   20654 H6         696.5070  -552.0753  -447.1297 H6            1 RES     
   20655 H6         693.9393  -552.0056  -448.8446 H6            1 RES     
   20656 H6         695.6393  -551.9215  -449.4638 H6            1 RES     
   20657 H6         695.0484  -553.3944  -448.6056 H6            1 RES     
   20658 H6         689.9925  -545.5123  -450.8084 H6            1 RES     
   20659 H6         689.7560  -545.2800  -452.5086 H6            1 RES     
   20660 H6         689.6204  -543.3162  -450.3482 H6            1 RES     
   20661 H6         691.0556  -542.8528  -451.3296 H6            1 RES     
   20662 H6         688.1675  -543.3744  -452.4002 H6            1 RES     
   20663 H6         689.6373  -543.1026  -453.3239 H6            1 RES     
   20664 H6         689.9795  -540.8793  -452.4714 H6            1 RES     
   20665 H6         688.5471  -541.1334  -453.4882 H6            1 RES     
   20666 H6         687.0641  -541.1661  -451.5931 H6            1 RES     
   20667 H6         688.4214  -540.8793  -450.4289 H6            1 RES     
   20668 H6         689.0212  -538.7639  -451.5569 H6            1 RES     
   20669 H6         687.7890  -539.0123  -452.8404 H6            1 RES     
   20670 H6         687.1065  -537.3388  -451.1598 H6            1 RES     
   20671 H6         687.1436  -538.5859  -449.8577 H6            1 RES     
   20672 H6         685.3212  -539.8546  -451.1017 H6            1 RES     
   20673 H6         684.8296  -538.1621  -450.7565 H6            1 RES     
   20674 H6         685.3771  -538.6106  -452.4132 H6            1 RES     
   20675 C0         693.4277  -544.4866  -455.6423 C0            1 RES     
   20676 C0         694.8528  -543.9206  -455.2009 C0            1 RES     
   20677 C0         695.5138  -543.3310  -456.4924 C0            1 RES     
   20678 C0         697.0069  -542.9654  -456.3695 C0            1 RES     
   20679 C0         697.6084  -542.3681  -457.6538 C0            1 RES     
   20680 C0         697.5593  -543.2722  -458.8984 C0            1 RES     
   20681 C0         698.1719  -544.6707  -458.7150 C0            1 RES     
   20682 C0         699.6436  -544.6404  -458.2663 C0            1 RES     
   20683 C0         700.2394  -546.0456  -458.0827 C0            1 RES     
   20684 C0         700.3599  -546.8226  -459.4059 C0            1 RES     
   20685 C0         701.0689  -548.1763  -459.2446 C0            1 RES     
   20686 C0         700.2858  -549.1690  -458.3854 C0            1 RES     
   20687 C0         695.1204  -542.9896  -453.9444 C0            1 RES     
   20688 C0         694.5993  -541.5261  -453.8784 C0            1 RES     
   20689 C0         693.4112  -541.3700  -452.9122 C0            1 RES     
   20690 C0         692.7843  -539.9885  -452.8212 C0            1 RES     
   20691 C0         693.5804  -538.9156  -452.0916 C0            1 RES     
   20692 C0         692.6710  -537.6747  -451.9818 C0            1 RES     
   20693 C0         693.2489  -536.5371  -451.1380 C0            1 RES     
   20694 C0         693.3502  -536.9058  -449.6572 C0            1 RES     
   20695 H6         693.0629  -543.8929  -456.5126 H6            1 RES     
   20696 H6         693.6620  -545.4538  -456.1419 H6            1 RES     
   20697 H6         695.4251  -544.8364  -454.9256 H6            1 RES     
   20698 H6         694.9525  -542.4243  -456.8058 H6            1 RES     
   20699 H6         695.4165  -544.0888  -457.2993 H6            1 RES     
   20700 H6         697.5804  -543.8637  -456.0584 H6            1 RES     
   20701 H6         697.1482  -542.1765  -455.6056 H6            1 RES     
   20702 H6         698.6669  -542.1060  -457.4409 H6            1 RES     
   20703 H6         697.0847  -541.4170  -457.8950 H6            1 RES     
   20704 H6         698.0900  -542.7464  -459.7221 H6            1 RES     
   20705 H6         696.5029  -543.3981  -459.2184 H6            1 RES     
   20706 H6         697.5752  -545.2434  -457.9732 H6            1 RES     
   20707 H6         698.0834  -545.1874  -459.6923 H6            1 RES     
   20708 H6         699.7080  -544.1345  -457.2804 H6            1 RES     
   20709 H6         700.2563  -544.0646  -458.9933 H6            1 RES     
   20710 H6         701.2596  -545.9253  -457.6575 H6            1 RES     
   20711 H6         699.6204  -546.6042  -457.3489 H6            1 RES     
   20712 H6         699.3616  -546.9974  -459.8574 H6            1 RES     
   20713 H6         700.9612  -546.2097  -460.1124 H6            1 RES     
   20714 H6         702.0804  -548.0224  -458.8098 H6            1 RES     
   20715 H6         701.1911  -548.6223  -460.2552 H6            1 RES     
   20716 H6         700.1761  -548.8030  -457.3446 H6            1 RES     
   20717 H6         699.2801  -549.3456  -458.8228 H6            1 RES     
   20718 H6         700.8322  -550.1350  -458.3519 H6            1 RES     
   20719 H6         696.2214  -542.9098  -453.8864 H6            1 RES     
   20720 H6         694.9737  -543.5080  -452.9783 H6            1 RES     
   20721 H6         695.4025  -540.9012  -453.4292 H6            1 RES     
   20722 H6         694.3992  -541.1299  -454.8944 H6            1 RES     
   20723 H6         693.6931  -541.7254  -451.8950 H6            1 RES     
   20724 H6         692.5781  -541.9724  -453.2566 H6            1 RES     
   20725 H6         692.4776  -539.6450  -453.8330 H6            1 RES     
   20726 H6         691.8852  -540.1284  -452.1988 H6            1 RES     
   20727 H6         693.8308  -539.3067  -451.0828 H6            1 RES     
   20728 H6         694.5182  -538.6731  -452.6335 H6            1 RES     
   20729 H6         692.4787  -537.2967  -453.0100 H6            1 RES     
   20730 H6         691.6881  -537.9542  -451.5372 H6            1 RES     
   20731 H6         692.5492  -535.6765  -451.2199 H6            1 RES     
   20732 H6         694.2367  -536.2305  -451.5356 H6            1 RES     
   20733 H6         694.0664  -537.7355  -449.4941 H6            1 RES     
   20734 H6         693.7036  -536.0245  -449.0837 H6            1 RES     
   20735 H6         692.3527  -537.2031  -449.2652 H6            1 RES     
   20736 C0         690.9071  -557.6178  -456.2292 C0            1 RES     
   20737 C1         690.3528  -556.1856  -456.3946 C1            1 RES     
   20738 C1         689.3276  -556.1272  -457.2839 C1            1 RES     
   20739 S2         688.7644  -554.5744  -457.5557 S2            1 RES     
   20740 C1         689.9200  -553.9001  -456.5065 C1            1 RES     
   20741 C1         690.7304  -554.9030  -455.9631 C1            1 RES     
   20742 C1         689.1093  -557.4180  -457.8119 C1            1 RES     
   20743 C1         690.0388  -558.2722  -457.3048 C1            1 RES     
   20744 C1         689.9744  -559.5311  -457.8900 C1            1 RES     
   20745 C1         688.9313  -559.5870  -458.8297 C1            1 RES     
   20746 S2         688.1116  -558.1049  -458.9519 S2            1 RES     
   20747 H3         691.5688  -554.6694  -455.3349 H3            1 RES     
   20748 H3         690.6413  -560.3522  -457.6558 H3            1 RES     
   20749 N4         687.1344  -562.4443  -460.4599 N4            1 RES     
   20750 C1         687.4223  -561.4257  -459.5975 C1            1 RES     
   20751 C1         688.6254  -560.7079  -459.7116 C1            1 RES     
   20752 C1         689.5018  -561.0514  -460.7425 C1            1 RES     
   20753 N4         690.6667  -560.4026  -460.9985 N4            1 RES     
   20754 S2         691.2217  -561.1942  -462.3391 S2            1 RES     
   20755 N4         690.0623  -562.3384  -462.6305 N4            1 RES     
   20756 C1         689.1708  -562.1001  -461.6369 C1            1 RES     
   20757 C1         687.9790  -562.8000  -461.4683 C1            1 RES     
   20758 H5         686.7146  -561.1776  -458.8112 H5            1 RES     
   20759 C0         690.6845  -558.3836  -454.8776 C0            1 RES     
   20760 C0         689.3739  -559.0035  -454.2611 C0            1 RES     
   20761 C0         689.7933  -559.5130  -452.8374 C0            1 RES     
   20762 C0         688.7199  -560.2406  -452.0184 C0            1 RES     
   20763 C0         689.2293  -560.6508  -450.6167 C0            1 RES     
   20764 C0         690.4059  -561.6513  -450.5947 C0            1 RES     
   20765 C0         690.1606  -562.9570  -451.3713 C0            1 RES     
   20766 C0         688.9218  -563.7270  -450.8805 C0            1 RES     
   20767 C0         688.6472  -565.0004  -451.6934 C0            1 RES     
   20768 C0         689.7277  -566.0797  -451.5116 C0            1 RES     
   20769 C0         689.3853  -567.3905  -452.2375 C0            1 RES     
   20770 C0         689.3565  -567.2464  -453.7596 C0            1 RES     
   20771 C0         688.0630  -558.1523  -454.2172 C0            1 RES     
   20772 C0         688.0193  -556.8642  -453.3388 C0            1 RES     
   20773 C0         687.7082  -555.6624  -454.2359 C0            1 RES     
   20774 C0         687.9345  -554.2650  -453.6660 C0            1 RES     
   20775 C0         686.8490  -553.7250  -452.7464 C0            1 RES     
   20776 C0         687.2546  -552.2956  -452.3296 C0            1 RES     
   20777 C0         686.1755  -551.5357  -451.5547 C0            1 RES     
   20778 C0         684.9643  -551.1977  -452.4265 C0            1 RES     
   20779 H6         691.0527  -557.7492  -454.1123 H6            1 RES     
   20780 H6         691.3705  -559.2581  -454.9435 H6            1 RES     
   20781 H6         689.1143  -559.8852  -454.8886 H6            1 RES     
   20782 H6         690.1420  -558.6509  -452.2277 H6            1 RES     
   20783 H6         690.6545  -560.2034  -452.9652 H6            1 RES     
   20784 H6         688.3504  -561.1257  -452.5751 H6            1 RES     
   20785 H6         687.8653  -559.5554  -451.8464 H6            1 RES     
   20786 H6         688.3779  -561.0867  -450.0543 H6            1 RES     
   20787 H6         689.5417  -559.7403  -450.0588 H6            1 RES     
   20788 H6         690.6284  -561.8985  -449.5327 H6            1 RES     
   20789 H6         691.3163  -561.1679  -451.0092 H6            1 RES     
   20790 H6         690.0469  -562.7248  -452.4512 H6            1 RES     
   20791 H6         691.0677  -563.5856  -451.2541 H6            1 RES     
   20792 H6         688.0276  -563.0828  -451.0041 H6            1 RES     
   20793 H6         689.0256  -563.9779  -449.8021 H6            1 RES     
   20794 H6         687.6782  -565.4187  -451.3437 H6            1 RES     
   20795 H6         688.5400  -564.7210  -452.7625 H6            1 RES     
   20796 H6         690.7140  -565.7194  -451.8705 H6            1 RES     
   20797 H6         689.8105  -566.3060  -450.4262 H6            1 RES     
   20798 H6         688.4048  -567.7744  -451.8804 H6            1 RES     
   20799 H6         690.1639  -568.1409  -451.9809 H6            1 RES     
   20800 H6         688.5601  -566.5471  -454.0847 H6            1 RES     
   20801 H6         690.3393  -566.8831  -454.1285 H6            1 RES     
   20802 H6         689.1486  -568.2357  -454.2183 H6            1 RES     
   20803 H6         687.2458  -558.8128  -453.8563 H6            1 RES     
   20804 H6         687.7532  -557.9377  -455.2625 H6            1 RES     
   20805 H6         687.2196  -556.9386  -452.5681 H6            1 RES     
   20806 H6         688.9886  -556.7247  -452.8185 H6            1 RES     
   20807 H6         686.7148  -555.7471  -454.7246 H6            1 RES     
   20808 H6         688.4496  -555.7314  -455.0033 H6            1 RES     
   20809 H6         688.9132  -554.2310  -453.1811 H6            1 RES     
   20810 H6         687.9771  -553.5741  -454.5386 H6            1 RES     
   20811 H6         685.9024  -553.7143  -453.3271 H6            1 RES     
   20812 H6         686.7208  -554.3663  -451.8490 H6            1 RES     
   20813 H6         688.1675  -552.3686  -451.6960 H6            1 RES     
   20814 H6         687.5161  -551.6880  -453.2257 H6            1 RES     
   20815 H6         686.6181  -550.5734  -451.2151 H6            1 RES     
   20816 H6         685.8641  -552.1145  -450.6598 H6            1 RES     
   20817 H6         684.4442  -552.1127  -452.7722 H6            1 RES     
   20818 H6         684.2448  -550.5899  -451.8412 H6            1 RES     
   20819 H6         685.2843  -550.6051  -453.3126 H6            1 RES     
   20820 C0         692.4364  -557.5140  -456.6111 C0            1 RES     
   20821 C0         693.6609  -557.6997  -455.6050 C0            1 RES     
   20822 C0         694.8883  -556.9860  -456.2657 C0            1 RES     
   20823 C0         696.2540  -557.2598  -455.6038 C0            1 RES     
   20824 C0         697.4273  -556.5201  -456.2704 C0            1 RES     
   20825 C0         697.6715  -556.8528  -457.7532 C0            1 RES     
   20826 C0         697.8366  -558.3487  -458.0688 C0            1 RES     
   20827 C0         698.9811  -559.0168  -457.2866 C0            1 RES     
   20828 C0         699.1295  -560.5125  -457.6095 C0            1 RES     
   20829 C0         699.5841  -560.7703  -459.0572 C0            1 RES     
   20830 C0         699.8539  -562.2552  -459.3462 C0            1 RES     
   20831 C0         698.5978  -563.1230  -459.2684 C0            1 RES     
   20832 C0         693.6130  -557.4280  -454.0427 C0            1 RES     
   20833 C0         693.4461  -555.9957  -453.4609 C0            1 RES     
   20834 C0         692.0410  -555.7597  -452.8785 C0            1 RES     
   20835 C0         691.7517  -554.3681  -452.3404 C0            1 RES     
   20836 C0         692.4138  -553.9851  -451.0243 C0            1 RES     
   20837 C0         691.8338  -552.6180  -450.6079 C0            1 RES     
   20838 C0         692.2707  -552.1387  -449.2224 C0            1 RES     
   20839 C0         691.6984  -553.0064  -448.1005 C0            1 RES     
   20840 H6         692.5837  -556.5666  -457.1801 H6            1 RES     
   20841 H6         692.6273  -558.2626  -457.4131 H6            1 RES     
   20842 H6         693.8608  -558.7958  -455.6346 H6            1 RES     
   20843 H6         694.7112  -555.8888  -456.2698 H6            1 RES     
   20844 H6         694.9502  -557.3261  -457.3218 H6            1 RES     
   20845 H6         696.4449  -558.3534  -455.5946 H6            1 RES     
   20846 H6         696.2552  -556.8942  -454.5587 H6            1 RES     
   20847 H6         698.3467  -556.7551  -455.6927 H6            1 RES     
   20848 H6         697.2651  -555.4232  -456.1832 H6            1 RES     
   20849 H6         698.5849  -556.3082  -458.0781 H6            1 RES     
   20850 H6         696.8261  -556.4639  -458.3600 H6            1 RES     
   20851 H6         696.8859  -558.8813  -457.8522 H6            1 RES     
   20852 H6         698.0266  -558.4247  -459.1589 H6            1 RES     
   20853 H6         698.7637  -558.9443  -456.2005 H6            1 RES     
   20854 H6         699.9409  -558.4925  -457.4850 H6            1 RES     
   20855 H6         699.9001  -560.9294  -456.9250 H6            1 RES     
   20856 H6         698.1652  -561.0219  -457.3992 H6            1 RES     
   20857 H6         698.8314  -560.3994  -459.7830 H6            1 RES     
   20858 H6         700.5340  -560.2169  -459.2245 H6            1 RES     
   20859 H6         700.6204  -562.6431  -458.6406 H6            1 RES     
   20860 H6         700.2607  -562.3359  -460.3773 H6            1 RES     
   20861 H6         698.1725  -563.1265  -458.2446 H6            1 RES     
   20862 H6         697.8325  -562.7558  -459.9850 H6            1 RES     
   20863 H6         698.8583  -564.1692  -459.5336 H6            1 RES     
   20864 H6         694.5908  -557.7825  -453.6682 H6            1 RES     
   20865 H6         692.9881  -558.1561  -453.4922 H6            1 RES     
   20866 H6         694.1253  -555.9054  -452.5847 H6            1 RES     
   20867 H6         693.7540  -555.2288  -454.2002 H6            1 RES     
   20868 H6         691.8148  -556.5216  -452.0984 H6            1 RES     
   20869 H6         691.2989  -555.8557  -453.6632 H6            1 RES     
   20870 H6         691.9510  -553.6091  -453.1279 H6            1 RES     
   20871 H6         690.6738  -554.3747  -452.1091 H6            1 RES     
   20872 H6         692.1549  -554.7635  -450.2757 H6            1 RES     
   20873 H6         693.5174  -553.9319  -451.1304 H6            1 RES     
   20874 H6         692.1493  -551.8654  -451.3637 H6            1 RES     
   20875 H6         690.7200  -552.6530  -450.6133 H6            1 RES     
   20876 H6         691.8688  -551.1106  -449.0864 H6            1 RES     
   20877 H6         693.3765  -552.0983  -449.1634 H6            1 RES     
   20878 H6         692.0899  -554.0419  -448.1490 H6            1 RES     
   20879 H6         691.9841  -552.5728  -447.1202 H6            1 RES     
   20880 H6         690.5883  -553.0332  -448.1626 H6            1 RES     
   20881 C0         687.5072  -567.7310  -463.7135 C0            1 RES     
   20882 C1         687.3946  -566.2335  -463.3519 C1            1 RES     
   20883 C1         686.8413  -565.5000  -464.3524 C1            1 RES     
   20884 S2         686.7892  -563.8583  -464.0293 S2            1 RES     
   20885 C1         687.5586  -564.0620  -462.5268 C1            1 RES     
   20886 C1         687.8465  -565.4131  -462.3049 C1            1 RES     
   20887 C1         686.5676  -566.3525  -465.4438 C1            1 RES     
   20888 C1         687.0092  -567.6063  -465.1542 C1            1 RES     
   20889 C1         686.9024  -568.4679  -466.2393 C1            1 RES     
   20890 C1         686.3275  -567.8091  -467.3393 C1            1 RES     
   20891 S2         685.9720  -566.1863  -466.9879 S2            1 RES     
   20892 H3         688.4003  -565.7357  -461.4437 H3            1 RES     
   20893 H3         687.2239  -569.5025  -466.2363 H3            1 RES     
   20894 N4         684.7300  -569.0554  -470.4928 N4            1 RES     
   20895 C1         684.8743  -568.5791  -469.2214 C1            1 RES     
   20896 C1         686.1521  -568.3604  -468.6783 C1            1 RES     
   20897 C1         687.2629  -568.6218  -469.4825 C1            1 RES     
   20898 N4         688.5470  -568.3995  -469.1015 N4            1 RES     
   20899 S2         689.3931  -568.8232  -470.4567 S2            1 RES     
   20900 N4         688.2189  -569.2861  -471.5269 N4            1 RES     
   20901 C1         687.0860  -569.0971  -470.8061 C1            1 RES     
   20902 C1         685.8008  -569.3234  -471.2917 C1            1 RES     
   20903 H5         683.9889  -568.3774  -468.6247 H5            1 RES     
   20904 C0         686.6085  -568.7782  -462.9663 C0            1 RES     
   20905 C0         685.0593  -569.0468  -463.0651 C0            1 RES     
   20906 C0         684.7622  -570.1329  -461.9721 C0            1 RES     
   20907 C0         683.3214  -570.6512  -461.8849 C0            1 RES     
   20908 C0         683.1353  -571.6769  -460.7420 C0            1 RES     
   20909 C0         683.9553  -572.9799  -460.8673 C0            1 RES     
   20910 C0         683.7518  -573.7494  -462.1843 C0            1 RES     
   20911 C0         682.2827  -574.1305  -462.4393 C0            1 RES     
   20912 C0         682.0744  -574.8487  -463.7803 C0            1 RES     
   20913 C0         682.7285  -576.2398  -463.8302 C0            1 RES     
   20914 C0         682.4173  -576.9957  -465.1317 C0            1 RES     
   20915 C0         683.0208  -576.3345  -466.3714 C0            1 RES     
   20916 C0         684.0604  -567.8464  -462.9866 C0            1 RES     
   20917 C0         683.9621  -567.0214  -461.6665 C0            1 RES     
   20918 C0         684.3027  -565.5591  -461.9691 C0            1 RES     
   20919 C0         684.5907  -564.6319  -460.7917 C0            1 RES     
   20920 C0         683.3804  -564.0857  -460.0484 C0            1 RES     
   20921 C0         683.8956  -563.1436  -458.9400 C0            1 RES     
   20922 C0         682.7966  -562.3598  -458.2189 C0            1 RES     
   20923 C0         682.1323  -561.3226  -459.1268 C0            1 RES     
   20924 H6         686.7775  -568.6297  -461.9304 H6            1 RES     
   20925 H6         687.0530  -569.7623  -463.2381 H6            1 RES     
   20926 H6         684.8784  -569.4964  -464.0670 H6            1 RES     
   20927 H6         685.0252  -569.7267  -460.9710 H6            1 RES     
   20928 H6         685.4281  -571.0005  -462.1674 H6            1 RES     
   20929 H6         683.0139  -571.0880  -462.8567 H6            1 RES     
   20930 H6         682.6428  -569.8058  -461.6525 H6            1 RES     
   20931 H6         682.0579  -571.9360  -460.6832 H6            1 RES     
   20932 H6         683.3970  -571.1977  -459.7726 H6            1 RES     
   20933 H6         683.6825  -573.6421  -460.0156 H6            1 RES     
   20934 H6         685.0378  -572.7525  -460.7630 H6            1 RES     
   20935 H6         684.1255  -573.1338  -463.0295 H6            1 RES     
   20936 H6         684.3763  -574.6653  -462.1308 H6            1 RES     
   20937 H6         681.6756  -573.2036  -462.4878 H6            1 RES     
   20938 H6         681.8966  -574.7581  -461.6064 H6            1 RES     
   20939 H6         680.9794  -574.9760  -463.9258 H6            1 RES     
   20940 H6         682.4601  -574.1985  -464.5933 H6            1 RES     
   20941 H6         683.8297  -576.1659  -463.7143 H6            1 RES     
   20942 H6         682.3264  -576.8410  -462.9857 H6            1 RES     
   20943 H6         681.3168  -577.0916  -465.2582 H6            1 RES     
   20944 H6         682.8454  -578.0180  -465.0482 H6            1 RES     
   20945 H6         682.5922  -575.3262  -466.5411 H6            1 RES     
   20946 H6         684.1233  -576.2531  -466.2637 H6            1 RES     
   20947 H6         682.7960  -576.9543  -467.2646 H6            1 RES     
   20948 H6         683.0429  -568.2424  -463.1921 H6            1 RES     
   20949 H6         684.2415  -567.1861  -463.8616 H6            1 RES     
   20950 H6         682.9293  -567.0592  -461.2531 H6            1 RES     
   20951 H6         684.6542  -567.4360  -460.9056 H6            1 RES     
   20952 H6         683.5888  -565.0993  -462.6846 H6            1 RES     
   20953 H6         685.2504  -565.6249  -462.4599 H6            1 RES     
   20954 H6         685.2816  -565.1287  -460.1063 H6            1 RES     
   20955 H6         685.1241  -563.7489  -461.2118 H6            1 RES     
   20956 H6         682.7655  -563.5288  -460.7869 H6            1 RES     
   20957 H6         682.7717  -564.9030  -459.6072 H6            1 RES     
   20958 H6         684.4458  -563.7602  -458.1936 H6            1 RES     
   20959 H6         684.6153  -562.4047  -459.3604 H6            1 RES     
   20960 H6         683.2717  -561.8081  -457.3780 H6            1 RES     
   20961 H6         682.0392  -563.0551  -457.7997 H6            1 RES     
   20962 H6         681.6009  -561.8029  -459.9718 H6            1 RES     
   20963 H6         681.3950  -560.7363  -458.5417 H6            1 RES     
   20964 H6         682.8970  -560.6216  -459.5300 H6            1 RES     
   20965 C0         689.0454  -568.0695  -463.5908 C0            1 RES     
   20966 C0         689.7026  -569.0265  -462.4961 C0            1 RES     
   20967 C0         691.2157  -568.6312  -462.4143 C0            1 RES     
   20968 C0         692.1145  -569.5968  -461.6157 C0            1 RES     
   20969 C0         693.5874  -569.1572  -461.5414 C0            1 RES     
   20970 C0         694.3134  -569.0214  -462.8917 C0            1 RES     
   20971 C0         694.2533  -570.2650  -463.7942 C0            1 RES     
   20972 C0         694.8200  -571.5319  -463.1295 C0            1 RES     
   20973 C0         694.7479  -572.7666  -464.0424 C0            1 RES     
   20974 C0         695.6647  -572.6553  -465.2738 C0            1 RES     
   20975 C0         695.6899  -573.9370  -466.1211 C0            1 RES     
   20976 C0         694.3457  -574.2533  -466.7769 C0            1 RES     
   20977 C0         689.1070  -569.3144  -461.0541 C0            1 RES     
   20978 C0         689.0471  -568.2170  -459.9540 C0            1 RES     
   20979 C0         687.6165  -567.6998  -459.7194 C0            1 RES     
   20980 C0         687.4554  -566.5777  -458.7071 C0            1 RES     
   20981 C0         687.6149  -566.9445  -457.2384 C0            1 RES     
   20982 C0         687.2366  -565.6950  -456.4170 C0            1 RES     
   20983 C0         687.1892  -565.9201  -454.9047 C0            1 RES     
   20984 C0         686.0458  -566.8479  -454.4911 C0            1 RES     
   20985 H6         689.6101  -567.1084  -463.6086 H6            1 RES     
   20986 H6         689.3646  -568.5089  -464.5630 H6            1 RES     
   20987 H6         689.6498  -570.0363  -462.9647 H6            1 RES     
   20988 H6         691.3022  -567.6170  -461.9679 H6            1 RES     
   20989 H6         691.6100  -568.5824  -463.4521 H6            1 RES     
   20990 H6         692.0390  -570.6147  -462.0525 H6            1 RES     
   20991 H6         691.7865  -569.6428  -460.5592 H6            1 RES     
   20992 H6         694.1294  -569.8968  -460.9141 H6            1 RES     
   20993 H6         693.6513  -568.1804  -461.0134 H6            1 RES     
   20994 H6         695.3770  -568.7732  -462.6826 H6            1 RES     
   20995 H6         693.8831  -568.1659  -463.4548 H6            1 RES     
   20996 H6         693.2016  -570.4517  -464.0999 H6            1 RES     
   20997 H6         694.8337  -570.0234  -464.7078 H6            1 RES     
   20998 H6         694.2159  -571.7652  -462.2279 H6            1 RES     
   20999 H6         695.8708  -571.3620  -462.8096 H6            1 RES     
   21000 H6         695.0749  -573.6458  -463.4455 H6            1 RES     
   21001 H6         693.6916  -572.9262  -464.3466 H6            1 RES     
   21002 H6         695.3596  -571.8083  -465.9221 H6            1 RES     
   21003 H6         696.7008  -572.4675  -464.9167 H6            1 RES     
   21004 H6         696.0114  -574.7969  -465.4941 H6            1 RES     
   21005 H6         696.4398  -573.7992  -466.9297 H6            1 RES     
   21006 H6         693.5635  -574.4545  -466.0174 H6            1 RES     
   21007 H6         694.0250  -573.4080  -467.4223 H6            1 RES     
   21008 H6         694.4506  -575.1609  -467.4079 H6            1 RES     
   21009 H6         689.7544  -570.1083  -460.6387 H6            1 RES     
   21010 H6         688.1718  -569.9047  -461.0782 H6            1 RES     
   21011 H6         689.3296  -568.6909  -458.9881 H6            1 RES     
   21012 H6         689.7819  -567.4117  -460.1564 H6            1 RES     
   21013 H6         686.9396  -568.5448  -459.4585 H6            1 RES     
   21014 H6         687.2405  -567.2396  -460.6263 H6            1 RES     
   21015 H6         688.1104  -565.7228  -458.9827 H6            1 RES     
   21016 H6         686.4009  -566.2685  -458.7957 H6            1 RES     
   21017 H6         686.9176  -567.7809  -457.0204 H6            1 RES     
   21018 H6         688.6535  -567.2662  -457.0152 H6            1 RES     
   21019 H6         687.9816  -564.8992  -456.6380 H6            1 RES     
   21020 H6         686.2366  -565.3154  -456.7297 H6            1 RES     
   21021 H6         687.0048  -564.9318  -454.4291 H6            1 RES     
   21022 H6         688.1622  -566.3107  -454.5461 H6            1 RES     
   21023 H6         686.1849  -567.8690  -454.8982 H6            1 RES     
   21024 H6         686.0123  -566.9170  -453.3845 H6            1 RES     
   21025 H6         685.0732  -566.4429  -454.8474 H6            1 RES     
   21026 C0         685.1682  -572.6339  -475.5600 C0            1 RES     
   21027 C1         685.2575  -571.4241  -474.6039 C1            1 RES     
   21028 C1         685.3187  -570.2418  -475.2700 C1            1 RES     
   21029 S2         685.5091  -568.9162  -474.2655 S2            1 RES     
   21030 C1         685.5612  -569.8936  -472.8752 C1            1 RES     
   21031 C1         685.4319  -571.2430  -473.2217 C1            1 RES     
   21032 C1         685.3137  -570.5006  -476.6577 C1            1 RES     
   21033 C1         685.3165  -571.8456  -476.8622 C1            1 RES     
   21034 C1         685.4560  -572.1755  -478.2050 C1            1 RES     
   21035 C1         685.5203  -571.0156  -478.9953 C1            1 RES     
   21036 S2         685.4247  -569.6049  -478.0548 S2            1 RES     
   21037 H3         685.5169  -572.0223  -472.4884 H3            1 RES     
   21038 H3         685.5126  -573.1882  -478.5861 H3            1 RES     
   21039 N4         685.0555  -570.4165  -482.6661 N4            1 RES     
   21040 C1         684.7909  -570.4976  -481.3291 C1            1 RES     
   21041 C1         685.7671  -570.9646  -480.4320 C1            1 RES     
   21042 C1         687.0163  -571.3193  -480.9443 C1            1 RES     
   21043 N4         688.0624  -571.7294  -480.1821 N4            1 RES     
   21044 S2         689.2556  -571.9368  -481.3069 S2            1 RES     
   21045 N4         688.5247  -571.5364  -482.7366 N4            1 RES     
   21046 C1         687.2724  -571.2074  -482.3339 C1            1 RES     
   21047 C1         686.2655  -570.7642  -483.1874 C1            1 RES     
   21048 H5         683.8111  -570.2053  -480.9615 H5            1 RES     
   21049 C0         683.8407  -573.4677  -475.6327 C0            1 RES     
   21050 C0         682.4369  -573.0980  -476.2449 C0            1 RES     
   21051 C0         681.5022  -574.3052  -475.8826 C0            1 RES     
   21052 C0         680.0669  -574.2553  -476.4207 C0            1 RES     
   21053 C0         679.2250  -575.4683  -475.9595 C0            1 RES     
   21054 C0         679.7176  -576.8510  -476.4406 C0            1 RES     
   21055 C0         679.8822  -576.9859  -477.9647 C0            1 RES     
   21056 C0         678.5863  -576.6886  -478.7398 C0            1 RES     
   21057 C0         678.7673  -576.7691  -480.2624 C0            1 RES     
   21058 C0         679.0627  -578.1932  -480.7627 C0            1 RES     
   21059 C0         679.1281  -578.2822  -482.2957 C0            1 RES     
   21060 C0         680.2998  -577.5034  -482.8949 C0            1 RES     
   21061 C0         681.7803  -571.7222  -475.8969 C0            1 RES     
   21062 C0         681.3574  -571.4299  -474.4243 C0            1 RES     
   21063 C0         682.1041  -570.1868  -473.9313 C0            1 RES     
   21064 C0         682.1047  -569.8984  -472.4327 C0            1 RES     
   21065 C0         680.8536  -569.2403  -471.8695 C0            1 RES     
   21066 C0         681.0873  -568.9984  -470.3635 C0            1 RES     
   21067 C0         679.9969  -568.1681  -469.6825 C0            1 RES     
   21068 C0         679.9899  -566.7148  -470.1614 C0            1 RES     
   21069 H6         683.6180  -573.7595  -474.6382 H6            1 RES     
   21070 H6         684.1261  -574.3866  -476.1930 H6            1 RES     
   21071 H6         682.5689  -573.0736  -477.3497 H6            1 RES     
   21072 H6         681.4341  -574.3968  -474.7765 H6            1 RES     
   21073 H6         681.9811  -575.2312  -476.2669 H6            1 RES     
   21074 H6         680.0769  -574.1839  -477.5274 H6            1 RES     
   21075 H6         679.5572  -573.3567  -476.0182 H6            1 RES     
   21076 H6         678.1828  -575.3178  -476.3092 H6            1 RES     
   21077 H6         679.1845  -575.4854  -474.8478 H6            1 RES     
   21078 H6         678.9931  -577.6176  -476.0858 H6            1 RES     
   21079 H6         680.6934  -577.0872  -475.9648 H6            1 RES     
   21080 H6         680.6838  -576.2986  -478.3085 H6            1 RES     
   21081 H6         680.2158  -578.0243  -478.1696 H6            1 RES     
   21082 H6         678.2687  -575.6488  -478.5211 H6            1 RES     
   21083 H6         677.7758  -577.3773  -478.4151 H6            1 RES     
   21084 H6         677.8188  -576.4276  -480.7313 H6            1 RES     
   21085 H6         679.5748  -576.0676  -480.5600 H6            1 RES     
   21086 H6         680.0167  -578.5728  -480.3416 H6            1 RES     
   21087 H6         678.2392  -578.8572  -480.4203 H6            1 RES     
   21088 H6         678.1740  -577.9180  -482.7356 H6            1 RES     
   21089 H6         679.2511  -579.3509  -482.5747 H6            1 RES     
   21090 H6         680.2072  -576.4167  -482.6958 H6            1 RES     
   21091 H6         681.2597  -577.8743  -482.4770 H6            1 RES     
   21092 H6         680.3122  -577.6476  -483.9955 H6            1 RES     
   21093 H6         680.8649  -571.6204  -476.5182 H6            1 RES     
   21094 H6         682.4316  -570.9156  -476.2965 H6            1 RES     
   21095 H6         680.2648  -571.2271  -474.3600 H6            1 RES     
   21096 H6         681.5848  -572.3047  -473.7818 H6            1 RES     
   21097 H6         681.8494  -569.2808  -474.5204 H6            1 RES     
   21098 H6         683.1281  -570.4212  -474.1308 H6            1 RES     
   21099 H6         682.3425  -570.8178  -471.8920 H6            1 RES     
   21100 H6         682.9413  -569.1859  -472.2513 H6            1 RES     
   21101 H6         680.7178  -568.2786  -472.4084 H6            1 RES     
   21102 H6         679.9560  -569.8758  -472.0230 H6            1 RES     
   21103 H6         681.1490  -569.9908  -469.8618 H6            1 RES     
   21104 H6         682.0584  -568.4785  -470.1986 H6            1 RES     
   21105 H6         680.2133  -568.1562  -468.5916 H6            1 RES     
   21106 H6         679.0023  -568.6361  -469.8385 H6            1 RES     
   21107 H6         679.7407  -566.6428  -471.2384 H6            1 RES     
   21108 H6         679.2320  -566.1405  -469.5909 H6            1 RES     
   21109 H6         680.9861  -566.2500  -469.9873 H6            1 RES     
   21110 C0         686.4182  -573.5323  -475.2051 C0            1 RES     
   21111 C0         686.3633  -574.9782  -474.5325 C0            1 RES     
   21112 C0         687.7696  -575.2194  -473.8870 C0            1 RES     
   21113 C0         688.0446  -576.6589  -473.4074 C0            1 RES     
   21114 C0         689.4278  -576.8445  -472.7588 C0            1 RES     
   21115 C0         690.6359  -576.5263  -473.6578 C0            1 RES     
   21116 C0         690.6607  -577.2665  -475.0054 C0            1 RES     
   21117 C0         690.6252  -578.7984  -474.8633 C0            1 RES     
   21118 C0         690.6454  -579.5229  -476.2190 C0            1 RES     
   21119 C0         691.9717  -579.3369  -476.9777 C0            1 RES     
   21120 C0         692.0427  -580.1603  -478.2731 C0            1 RES     
   21121 C0         691.0300  -579.7144  -479.3279 C0            1 RES     
   21122 C0         685.2020  -575.5073  -473.5899 C0            1 RES     
   21123 C0         684.9600  -574.9178  -472.1715 C0            1 RES     
   21124 C0         683.7054  -574.0280  -472.1129 C0            1 RES     
   21125 C0         683.4130  -573.3497  -470.7847 C0            1 RES     
   21126 C0         682.8978  -574.2328  -469.6569 C0            1 RES     
   21127 C0         682.5147  -573.2988  -468.4908 C0            1 RES     
   21128 C0         681.8291  -573.9988  -467.3160 C0            1 RES     
   21129 C0         680.4405  -574.5243  -467.6832 C0            1 RES     
   21130 H6         687.1422  -572.9027  -474.6372 H6            1 RES     
   21131 H6         686.9873  -573.6926  -476.1487 H6            1 RES     
   21132 H6         686.2763  -575.6692  -475.4026 H6            1 RES     
   21133 H6         687.8964  -574.5293  -473.0250 H6            1 RES     
   21134 H6         688.5395  -574.9629  -474.6460 H6            1 RES     
   21135 H6         687.9231  -577.3595  -474.2600 H6            1 RES     
   21136 H6         687.3271  -576.9438  -472.6137 H6            1 RES     
   21137 H6         689.5017  -577.8988  -472.4165 H6            1 RES     
   21138 H6         689.4941  -576.2067  -471.8500 H6            1 RES     
   21139 H6         691.5583  -576.7738  -473.0882 H6            1 RES     
   21140 H6         690.6621  -575.4349  -473.8635 H6            1 RES     
   21141 H6         689.8005  -576.9368  -475.6264 H6            1 RES     
   21142 H6         691.5910  -576.9545  -475.5225 H6            1 RES     
   21143 H6         689.6804  -579.0903  -474.3589 H6            1 RES     
   21144 H6         691.4754  -579.1472  -474.2381 H6            1 RES     
   21145 H6         690.5083  -580.6085  -476.0221 H6            1 RES     
   21146 H6         689.7865  -579.1686  -476.8276 H6            1 RES     
   21147 H6         692.1414  -578.2692  -477.2271 H6            1 RES     
   21148 H6         692.7982  -579.6776  -476.3165 H6            1 RES     
   21149 H6         691.8932  -581.2377  -478.0434 H6            1 RES     
   21150 H6         693.0599  -580.0364  -478.7033 H6            1 RES     
   21151 H6         689.9891  -579.8642  -478.9767 H6            1 RES     
   21152 H6         691.1843  -578.6435  -479.5797 H6            1 RES     
   21153 H6         691.1701  -580.3186  -480.2487 H6            1 RES     
   21154 H6         685.4411  -576.5740  -473.4252 H6            1 RES     
   21155 H6         684.2458  -575.6663  -474.1229 H6            1 RES     
   21156 H6         684.7282  -575.7646  -471.4885 H6            1 RES     
   21157 H6         685.8738  -574.4214  -471.7869 H6            1 RES     
   21158 H6         682.8116  -574.6002  -472.4504 H6            1 RES     
   21159 H6         683.8276  -573.1791  -472.7763 H6            1 RES     
   21160 H6         684.2953  -572.7559  -470.4609 H6            1 RES     
   21161 H6         682.5749  -572.6656  -470.9970 H6            1 RES     
   21162 H6         682.0045  -574.7752  -470.0325 H6            1 RES     
   21163 H6         683.6662  -574.9683  -469.3397 H6            1 RES     
   21164 H6         683.4428  -572.8078  -468.1237 H6            1 RES     
   21165 H6         681.8288  -572.4964  -468.8479 H6            1 RES     
   21166 H6         681.6968  -573.2420  -466.5119 H6            1 RES     
   21167 H6         682.4704  -574.8166  -466.9318 H6            1 RES     
   21168 H6         680.4982  -575.3167  -468.4557 H6            1 RES     
   21169 H6         679.9611  -574.9544  -466.7800 H6            1 RES     
   21170 H6         679.8018  -573.6950  -468.0589 H6            1 RES     
   21171 C0         686.6421  -571.9163  -488.4891 C0            1 RES     
   21172 C1         686.6147  -571.2346  -487.1034 C1            1 RES     
   21173 C1         687.1926  -570.0054  -487.1203 C1            1 RES     
   21174 S2         687.2621  -569.2773  -485.6144 S2            1 RES     
   21175 C1         686.5466  -570.6214  -484.8579 C1            1 RES     
   21176 C1         686.2682  -571.6199  -485.7976 C1            1 RES     
   21177 C1         687.6753  -569.7473  -488.4215 C1            1 RES     
   21178 C1         687.4601  -570.8395  -489.2036 C1            1 RES     
   21179 C1         688.0384  -570.7113  -490.4607 C1            1 RES     
   21180 C1         688.6629  -569.4596  -490.5926 C1            1 RES     
   21181 S2         688.5211  -568.5311  -489.1779 S2            1 RES     
   21182 H3         685.8837  -572.5778  -485.5028 H3            1 RES     
   21183 H3         688.0141  -571.4751  -491.2288 H3            1 RES     
   21184 N4         689.8210  -567.5026  -493.5724 N4            1 RES     
   21185 C1         689.0423  -567.9380  -492.5389 C1            1 RES     
   21186 C1         689.4582  -569.0092  -491.7294 C1            1 RES     
   21187 C1         690.6959  -569.5961  -491.9987 C1            1 RES     
   21188 N4         691.2398  -570.5972  -491.2603 N4            1 RES     
   21189 S2         692.7004  -570.8246  -491.9998 S2            1 RES     
   21190 N4         692.6976  -569.7167  -493.2289 N4            1 RES     
   21191 C1         691.4946  -569.1129  -493.0654 C1            1 RES     
   21192 C1         691.0287  -568.0660  -493.8565 C1            1 RES     
   21193 H5         688.0881  -567.4536  -492.3504 H5            1 RES     
   21194 C0         685.3008  -572.1251  -489.2766 C0            1 RES     
   21195 C0         684.3698  -571.0798  -489.9994 C0            1 RES     
   21196 C0         683.1257  -571.9055  -490.4820 C0            1 RES     
   21197 C0         682.0665  -571.1505  -491.2946 C0            1 RES     
   21198 C0         680.8652  -572.0494  -491.6712 C0            1 RES     
   21199 C0         681.1874  -573.2580  -492.5775 C0            1 RES     
   21200 C0         681.9025  -572.9078  -493.8944 C0            1 RES     
   21201 C0         681.1156  -571.9082  -494.7606 C0            1 RES     
   21202 C0         681.8568  -571.5176  -496.0473 C0            1 RES     
   21203 C0         682.0013  -572.6831  -497.0405 C0            1 RES     
   21204 C0         682.6415  -572.2538  -498.3703 C0            1 RES     
   21205 C0         684.0951  -571.8031  -498.2212 C0            1 RES     
   21206 C0         683.9518  -569.7711  -489.2526 C0            1 RES     
   21207 C0         683.0612  -569.8728  -487.9762 C0            1 RES     
   21208 C0         683.8098  -569.2430  -486.7977 C0            1 RES     
   21209 C0         683.2862  -569.5123  -485.3898 C0            1 RES     
   21210 C0         682.0942  -568.6801  -484.9402 C0            1 RES     
   21211 C0         681.7655  -569.0775  -483.4858 C0            1 RES     
   21212 C0         680.7088  -568.1962  -482.8157 C0            1 RES     
   21213 C0         681.2124  -566.7727  -482.5683 C0            1 RES     
   21214 H6         684.6471  -572.6394  -488.6194 H6            1 RES     
   21215 H6         685.5718  -572.8298  -490.0950 H6            1 RES     
   21216 H6         684.9265  -570.7251  -490.8954 H6            1 RES     
   21217 H6         682.6106  -572.3422  -489.5985 H6            1 RES     
   21218 H6         683.4988  -572.7480  -491.1028 H6            1 RES     
   21219 H6         682.5255  -570.7099  -492.2029 H6            1 RES     
   21220 H6         681.6526  -570.3267  -490.6787 H6            1 RES     
   21221 H6         680.1054  -571.4166  -492.1746 H6            1 RES     
   21222 H6         680.3890  -572.4337  -490.7420 H6            1 RES     
   21223 H6         680.2316  -573.7774  -492.8120 H6            1 RES     
   21224 H6         681.8195  -573.9840  -492.0229 H6            1 RES     
   21225 H6         682.9053  -572.4889  -493.6663 H6            1 RES     
   21226 H6         682.0507  -573.8562  -494.4514 H6            1 RES     
   21227 H6         680.9767  -570.9692  -494.1870 H6            1 RES     
   21228 H6         680.1121  -572.3185  -495.0081 H6            1 RES     
   21229 H6         681.2697  -570.7130  -496.5413 H6            1 RES     
   21230 H6         682.8499  -571.1046  -495.7717 H6            1 RES     
   21231 H6         682.6036  -573.5061  -496.6030 H6            1 RES     
   21232 H6         680.9847  -573.0733  -497.2651 H6            1 RES     
   21233 H6         682.0431  -571.4377  -498.8308 H6            1 RES     
   21234 H6         682.6239  -573.1257  -499.0593 H6            1 RES     
   21235 H6         684.1751  -570.8993  -497.5842 H6            1 RES     
   21236 H6         684.7060  -572.6197  -497.7810 H6            1 RES     
   21237 H6         684.5061  -571.5518  -499.2213 H6            1 RES     
   21238 H6         683.4009  -569.1330  -489.9763 H6            1 RES     
   21239 H6         684.8688  -569.1748  -489.0574 H6            1 RES     
   21240 H6         682.1055  -569.3196  -488.1163 H6            1 RES     
   21241 H6         682.8183  -570.9340  -487.7646 H6            1 RES     
   21242 H6         684.0143  -568.1633  -486.9567 H6            1 RES     
   21243 H6         684.7503  -569.7517  -486.8051 H6            1 RES     
   21244 H6         683.0826  -570.5805  -485.2824 H6            1 RES     
   21245 H6         684.1198  -569.2660  -484.6933 H6            1 RES     
   21246 H6         682.3975  -567.6133  -485.0001 H6            1 RES     
   21247 H6         681.2123  -568.8472  -485.5940 H6            1 RES     
   21248 H6         681.4039  -570.1308  -483.4910 H6            1 RES     
   21249 H6         682.6829  -569.0411  -482.8553 H6            1 RES     
   21250 H6         680.4766  -568.6425  -481.8238 H6            1 RES     
   21251 H6         679.7784  -568.1822  -483.4214 H6            1 RES     
   21252 H6         681.4285  -566.2468  -483.5191 H6            1 RES     
   21253 H6         680.4392  -566.1962  -482.0210 H6            1 RES     
   21254 H6         682.1364  -566.7962  -481.9483 H6            1 RES     
   21255 C0         687.4197  -573.2731  -488.2651 C0            1 RES     
   21256 C0         686.7864  -574.7346  -488.3604 C0            1 RES     
   21257 C0         687.7351  -575.6813  -487.5504 C0            1 RES     
   21258 C0         687.4735  -577.1915  -487.7207 C0            1 RES     
   21259 C0         688.4127  -578.0827  -486.8890 C0            1 RES     
   21260 C0         689.9145  -577.9396  -487.1943 C0            1 RES     
   21261 C0         690.3014  -578.1222  -488.6713 C0            1 RES     
   21262 C0         689.8745  -579.4816  -489.2526 C0            1 RES     
   21263 C0         690.2640  -579.6462  -490.7306 C0            1 RES     
   21264 C0         691.7869  -579.7091  -490.9451 C0            1 RES     
   21265 C0         692.1762  -579.9985  -492.4031 C0            1 RES     
   21266 C0         691.7847  -578.8775  -493.3661 C0            1 RES     
   21267 C0         685.2626  -575.0921  -488.1011 C0            1 RES     
   21268 C0         684.6207  -574.9846  -486.6889 C0            1 RES     
   21269 C0         683.6748  -573.7766  -486.5655 C0            1 RES     
   21270 C0         683.0429  -573.5428  -485.2032 C0            1 RES     
   21271 C0         681.9448  -574.5069  -484.7767 C0            1 RES     
   21272 C0         681.3521  -573.9628  -483.4607 C0            1 RES     
   21273 C0         680.1240  -574.7225  -482.9559 C0            1 RES     
   21274 C0         678.9121  -574.5408  -483.8710 C0            1 RES     
   21275 H6         687.9826  -573.1908  -487.3063 H6            1 RES     
   21276 H6         688.2625  -573.2938  -488.9927 H6            1 RES     
   21277 H6         686.8971  -574.9988  -489.4375 H6            1 RES     
   21278 H6         687.6630  -575.4297  -486.4702 H6            1 RES     
   21279 H6         688.7772  -575.4794  -487.8793 H6            1 RES     
   21280 H6         687.5444  -577.4574  -488.7963 H6            1 RES     
   21281 H6         686.4584  -577.4491  -487.3614 H6            1 RES     
   21282 H6         688.1108  -579.1390  -487.0548 H6            1 RES     
   21283 H6         688.2566  -577.8703  -485.8084 H6            1 RES     
   21284 H6         690.4596  -578.6883  -486.5789 H6            1 RES     
   21285 H6         690.2604  -576.9353  -486.8690 H6            1 RES     
   21286 H6         689.8502  -577.3075  -489.2771 H6            1 RES     
   21287 H6         691.4039  -578.0147  -488.7269 H6            1 RES     
   21288 H6         688.7686  -579.5621  -489.2026 H6            1 RES     
   21289 H6         690.3109  -580.3106  -488.6544 H6            1 RES     
   21290 H6         689.8239  -580.6018  -491.0899 H6            1 RES     
   21291 H6         689.8145  -578.8150  -491.3143 H6            1 RES     
   21292 H6         692.2728  -578.7627  -490.6301 H6            1 RES     
   21293 H6         692.1898  -580.5348  -490.3189 H6            1 RES     
   21294 H6         691.7139  -580.9538  -492.7340 H6            1 RES     
   21295 H6         693.2805  -580.1154  -492.4469 H6            1 RES     
   21296 H6         690.6846  -578.7471  -493.4077 H6            1 RES     
   21297 H6         692.2585  -577.9219  -493.0558 H6            1 RES     
   21298 H6         692.1373  -579.1325  -494.3876 H6            1 RES     
   21299 H6         685.1751  -576.1581  -488.3805 H6            1 RES     
   21300 H6         684.5829  -574.6949  -488.8782 H6            1 RES     
   21301 H6         683.9581  -575.8674  -486.5506 H6            1 RES     
   21302 H6         685.3955  -575.0235  -485.8967 H6            1 RES     
   21303 H6         682.8825  -573.8267  -487.3465 H6            1 RES     
   21304 H6         684.2323  -572.8587  -486.7148 H6            1 RES     
   21305 H6         683.8350  -573.4650  -484.4271 H6            1 RES     
   21306 H6         682.5295  -572.5714  -485.2946 H6            1 RES     
   21307 H6         681.1745  -574.5182  -485.5765 H6            1 RES     
   21308 H6         682.3433  -575.5334  -484.6375 H6            1 RES     
   21309 H6         682.1454  -574.0056  -482.6822 H6            1 RES     
   21310 H6         681.0577  -572.8949  -483.5820 H6            1 RES     
   21311 H6         679.8581  -574.2983  -481.9628 H6            1 RES     
   21312 H6         680.3646  -575.7968  -482.8302 H6            1 RES     
   21313 H6         679.0912  -574.9794  -484.8727 H6            1 RES     
   21314 H6         678.0344  -575.0490  -483.4215 H6            1 RES     
   21315 H6         678.6730  -573.4605  -483.9835 H6            1 RES     
   21316 C0         693.1899  -567.3661  -498.7979 C0            1 RES     
   21317 C1         692.7728  -567.2463  -497.3156 C1            1 RES     
   21318 C1         693.5676  -566.3903  -496.6222 C1            1 RES     
   21319 S2         693.2002  -566.3075  -494.9910 S2            1 RES     
   21320 C1         691.9668  -567.4681  -495.1420 C1            1 RES     
   21321 C1         691.8657  -567.9037  -496.4678 C1            1 RES     
   21322 C1         694.5663  -565.8943  -497.4878 C1            1 RES     
   21323 C1         694.4391  -566.4885  -498.7050 C1            1 RES     
   21324 C1         695.4770  -566.1551  -499.5668 C1            1 RES     
   21325 C1         696.3636  -565.2569  -498.9491 C1            1 RES     
   21326 S2         695.8876  -564.8920  -497.3605 S2            1 RES     
   21327 H3         691.1946  -568.6922  -496.7507 H3            1 RES     
   21328 H3         695.5875  -566.5403  -500.5734 H3            1 RES     
   21329 N4         699.0003  -562.9604  -500.2998 N4            1 RES     
   21330 C1         697.8031  -563.4085  -499.8201 C1            1 RES     
   21331 C1         697.6194  -564.7662  -499.5056 C1            1 RES     
   21332 C1         698.7000  -565.6335  -499.6761 C1            1 RES     
   21333 N4         698.6740  -566.9529  -499.3568 N4            1 RES     
   21334 S2         700.2177  -567.4287  -499.7068 S2            1 RES     
   21335 N4         700.9430  -566.0456  -500.2540 N4            1 RES     
   21336 C1         699.9386  -565.1398  -500.1571 C1            1 RES     
   21337 C1         700.0651  -563.7913  -500.4799 C1            1 RES     
   21338 H5         696.9846  -562.7057  -499.6906 H5            1 RES     
   21339 C0         692.2552  -566.7828  -499.9154 C0            1 RES     
   21340 C0         691.9393  -565.2888  -500.3028 C0            1 RES     
   21341 C0         690.8351  -565.3794  -501.4141 C0            1 RES     
   21342 C0         690.3757  -564.0582  -502.0431 C0            1 RES     
   21343 C0         689.2519  -564.2645  -503.0858 C0            1 RES     
   21344 C0         689.6274  -565.1131  -504.3206 C0            1 RES     
   21345 C0         690.8600  -564.6173  -505.0970 C0            1 RES     
   21346 C0         690.7189  -563.1660  -505.5896 C0            1 RES     
   21347 C0         691.9720  -562.6553  -506.3151 C0            1 RES     
   21348 C0         692.2325  -563.3716  -507.6510 C0            1 RES     
   21349 C0         693.4209  -562.7755  -508.4223 C0            1 RES     
   21350 C0         694.7599  -562.9703  -507.7100 C0            1 RES     
   21351 C0         691.5631  -564.2634  -499.1839 C0            1 RES     
   21352 C0         690.2447  -564.4663  -498.3757 C0            1 RES     
   21353 C0         690.5901  -564.6040  -496.8898 C0            1 RES     
   21354 C0         689.5106  -565.1315  -495.9490 C0            1 RES     
   21355 C0         688.4544  -564.1314  -495.5020 C0            1 RES     
   21356 C0         687.5022  -564.8572  -494.5284 C0            1 RES     
   21357 C0         686.4913  -563.9404  -493.8357 C0            1 RES     
   21358 C0         687.1592  -562.9807  -492.8487 C0            1 RES     
   21359 H6         691.2999  -567.2149  -499.7595 H6            1 RES     
   21360 H6         692.6622  -567.2079  -500.8606 H6            1 RES     
   21361 H6         692.8665  -564.8766  -500.7600 H6            1 RES     
   21362 H6         689.9319  -565.8734  -500.9938 H6            1 RES     
   21363 H6         691.2252  -566.0293  -502.2265 H6            1 RES     
   21364 H6         691.2395  -563.5317  -502.4975 H6            1 RES     
   21365 H6         689.9471  -563.4079  -501.2540 H6            1 RES     
   21366 H6         688.9113  -563.2654  -503.4280 H6            1 RES     
   21367 H6         688.3770  -564.7432  -502.5926 H6            1 RES     
   21368 H6         688.7510  -565.1306  -505.0063 H6            1 RES     
   21369 H6         689.8132  -566.1636  -504.0105 H6            1 RES     
   21370 H6         691.7586  -564.7017  -504.4500 H6            1 RES     
   21371 H6         691.0007  -565.2983  -505.9620 H6            1 RES     
   21372 H6         690.5779  -562.5023  -504.7123 H6            1 RES     
   21373 H6         689.8292  -563.0672  -506.2494 H6            1 RES     
   21374 H6         691.8199  -561.5743  -506.5262 H6            1 RES     
   21375 H6         692.8419  -562.7576  -505.6328 H6            1 RES     
   21376 H6         692.4162  -564.4544  -507.4925 H6            1 RES     
   21377 H6         691.3266  -563.2586  -508.2857 H6            1 RES     
   21378 H6         693.2482  -561.6920  -508.6025 H6            1 RES     
   21379 H6         693.4824  -563.2840  -509.4086 H6            1 RES     
   21380 H6         694.7816  -562.4391  -506.7371 H6            1 RES     
   21381 H6         694.9516  -564.0517  -507.5439 H6            1 RES     
   21382 H6         695.5750  -562.5579  -508.3409 H6            1 RES     
   21383 H6         691.4967  -563.2601  -499.6566 H6            1 RES     
   21384 H6         692.4373  -564.1517  -498.5072 H6            1 RES     
   21385 H6         689.5690  -563.5898  -498.4954 H6            1 RES     
   21386 H6         689.7097  -565.3671  -498.7391 H6            1 RES     
   21387 H6         691.0743  -563.6912  -496.4832 H6            1 RES     
   21388 H6         691.3199  -565.3854  -496.8795 H6            1 RES     
   21389 H6         689.0500  -566.0169  -496.3941 H6            1 RES     
   21390 H6         690.0360  -565.4650  -495.0252 H6            1 RES     
   21391 H6         688.9850  -563.3003  -494.9908 H6            1 RES     
   21392 H6         687.8866  -563.7266  -496.3662 H6            1 RES     
   21393 H6         686.9481  -565.6328  -495.1042 H6            1 RES     
   21394 H6         688.0819  -565.3799  -493.7338 H6            1 RES     
   21395 H6         685.7958  -564.5838  -493.2531 H6            1 RES     
   21396 H6         685.9014  -563.3780  -494.5898 H6            1 RES     
   21397 H6         687.8416  -562.2769  -493.3645 H6            1 RES     
   21398 H6         686.3819  -562.3887  -492.3243 H6            1 RES     
   21399 H6         687.7355  -563.5540  -492.0885 H6            1 RES     
   21400 C0         693.4956  -568.9005  -499.0168 C0            1 RES     
   21401 C0         692.6439  -569.8981  -499.9253 C0            1 RES     
   21402 C0         692.9632  -571.3435  -499.4143 C0            1 RES     
   21403 C0         692.4620  -572.4933  -500.3113 C0            1 RES     
   21404 C0         692.7765  -573.8949  -499.7593 C0            1 RES     
   21405 C0         694.2687  -574.2159  -499.5608 C0            1 RES     
   21406 C0         695.1532  -574.0047  -500.8008 C0            1 RES     
   21407 C0         694.6991  -574.8216  -502.0232 C0            1 RES     
   21408 C0         695.5902  -574.5955  -503.2553 C0            1 RES     
   21409 C0         697.0200  -575.1335  -503.0670 C0            1 RES     
   21410 C0         697.8755  -575.0221  -504.3386 C0            1 RES     
   21411 C0         698.1522  -573.5773  -504.7550 C0            1 RES     
   21412 C0         691.1026  -569.7383  -500.2658 C0            1 RES     
   21413 C0         689.9992  -569.8985  -499.1819 C0            1 RES     
   21414 C0         689.3740  -568.5511  -498.7783 C0            1 RES     
   21415 C0         688.3272  -568.5886  -497.6772 C0            1 RES     
   21416 C0         686.9659  -569.1667  -498.0379 C0            1 RES     
   21417 C0         686.0410  -568.9346  -496.8256 C0            1 RES     
   21418 C0         684.5783  -569.3154  -497.0613 C0            1 RES     
   21419 C0         683.8957  -568.3981  -498.0770 C0            1 RES     
   21420 H6         693.6402  -569.3672  -498.0146 H6            1 RES     
   21421 H6         694.5289  -568.9756  -499.4252 H6            1 RES     
   21422 H6         693.1068  -569.7944  -500.9338 H6            1 RES     
   21423 H6         692.5307  -571.4732  -498.3987 H6            1 RES     
   21424 H6         694.0673  -571.4371  -499.3300 H6            1 RES     
   21425 H6         692.8883  -572.3771  -501.3298 H6            1 RES     
   21426 H6         691.3577  -572.4683  -500.3879 H6            1 RES     
   21427 H6         692.3381  -574.6393  -500.4577 H6            1 RES     
   21428 H6         692.2603  -574.0278  -498.7831 H6            1 RES     
   21429 H6         694.3480  -575.2752  -499.2319 H6            1 RES     
   21430 H6         694.6725  -573.5875  -498.7384 H6            1 RES     
   21431 H6         695.1686  -572.9261  -501.0669 H6            1 RES     
   21432 H6         696.1831  -574.2965  -500.5103 H6            1 RES     
   21433 H6         693.6743  -574.5032  -502.3071 H6            1 RES     
   21434 H6         694.6703  -575.9044  -501.7740 H6            1 RES     
   21435 H6         695.1265  -575.1355  -504.1093 H6            1 RES     
   21436 H6         695.6022  -573.5109  -503.4947 H6            1 RES     
   21437 H6         697.5399  -574.6029  -502.2429 H6            1 RES     
   21438 H6         696.9510  -576.2110  -502.8012 H6            1 RES     
   21439 H6         697.3809  -575.5635  -505.1741 H6            1 RES     
   21440 H6         698.8526  -575.5125  -504.1391 H6            1 RES     
   21441 H6         697.2153  -573.0472  -505.0200 H6            1 RES     
   21442 H6         698.6651  -573.0327  -503.9338 H6            1 RES     
   21443 H6         698.8113  -573.5735  -505.6485 H6            1 RES     
   21444 H6         690.8980  -570.5305  -501.0092 H6            1 RES     
   21445 H6         690.8887  -568.8774  -500.9268 H6            1 RES     
   21446 H6         689.1579  -570.4662  -499.6373 H6            1 RES     
   21447 H6         690.3715  -570.4899  -498.3210 H6            1 RES     
   21448 H6         688.9621  -568.0341  -499.6746 H6            1 RES     
   21449 H6         690.1337  -567.9108  -498.3441 H6            1 RES     
   21450 H6         688.7471  -569.0800  -496.7727 H6            1 RES     
   21451 H6         688.1199  -567.5298  -497.4503 H6            1 RES     
   21452 H6         686.5896  -568.6177  -498.9269 H6            1 RES     
   21453 H6         687.0397  -570.2475  -498.2792 H6            1 RES     
   21454 H6         686.4342  -569.5313  -495.9733 H6            1 RES     
   21455 H6         686.0624  -567.8622  -496.5231 H6            1 RES     
   21456 H6         684.0452  -569.1949  -496.0926 H6            1 RES     
   21457 H6         684.5057  -570.3751  -497.3770 H6            1 RES     
   21458 H6         684.3514  -568.4962  -499.0822 H6            1 RES     
   21459 H6         682.8232  -568.6709  -498.1540 H6            1 RES     
   21460 H6         683.9657  -567.3384  -497.7468 H6            1 RES     
   21461 C0         704.0884  -562.2699  -503.8081 C0            1 RES     
   21462 C1         703.1609  -562.5261  -502.5998 C1            1 RES     
   21463 C1         703.7881  -562.3177  -501.4131 C1            1 RES     
   21464 S2         702.8384  -562.6755  -500.0817 S2            1 RES     
   21465 C1         701.5394  -563.1740  -501.0590 C1            1 RES     
   21466 C1         701.8729  -563.0548  -502.4126 C1            1 RES     
   21467 C1         705.1292  -561.9557  -501.6645 C1            1 RES     
   21468 C1         705.3615  -562.0016  -503.0042 C1            1 RES     
   21469 C1         706.7002  -561.7958  -503.3156 C1            1 RES     
   21470 C1         707.4483  -561.5584  -502.1502 C1            1 RES     
   21471 S2         706.4808  -561.6180  -500.7559 S2            1 RES     
   21472 H3         701.2100  -563.3923  -503.1866 H3            1 RES     
   21473 H3         707.1084  -561.8211  -504.3188 H3            1 RES     
   21474 N4         710.8408  -560.0734  -501.5706 N4            1 RES     
   21475 C1         709.4846  -560.1878  -501.6786 C1            1 RES     
   21476 C1         708.8965  -561.4021  -502.0730 C1            1 RES     
   21477 C1         709.7358  -562.4882  -502.3272 C1            1 RES     
   21478 N4         709.2950  -563.7289  -502.6588 N4            1 RES     
   21479 S2         710.7050  -564.5844  -502.7674 S2            1 RES     
   21480 N4         711.8736  -563.4662  -502.4178 N4            1 RES     
   21481 C1         711.1397  -562.3492  -502.1888 C1            1 RES     
   21482 C1         711.6780  -561.1190  -501.8208 C1            1 RES     
   21483 H5         708.8588  -559.3256  -501.4650 H5            1 RES     
   21484 C0         703.8217  -561.0372  -504.7419 C0            1 RES     
   21485 C0         704.0227  -559.4969  -504.4791 C0            1 RES     
   21486 C0         703.4529  -558.7865  -505.7570 C0            1 RES     
   21487 C0         703.5823  -557.2593  -505.8159 C0            1 RES     
   21488 C0         702.9425  -556.6653  -507.0928 C0            1 RES     
   21489 C0         703.5742  -557.1090  -508.4307 C0            1 RES     
   21490 C0         705.0891  -556.8638  -508.5448 C0            1 RES     
   21491 C0         705.4779  -555.3882  -508.3450 C0            1 RES     
   21492 C0         706.9944  -555.1552  -508.4036 C0            1 RES     
   21493 C0         707.5924  -555.4075  -509.7980 C0            1 RES     
   21494 C0         709.0880  -555.0613  -509.8739 C0            1 RES     
   21495 C0         709.9608  -555.9664  -509.0036 C0            1 RES     
   21496 C0         703.4750  -558.8602  -503.1601 C0            1 RES     
   21497 C0         701.9359  -558.8319  -502.9090 C0            1 RES     
   21498 C0         701.6307  -559.5912  -501.6142 C0            1 RES     
   21499 C0         700.1810  -559.9767  -501.3341 C0            1 RES     
   21500 C0         699.2843  -558.8803  -500.7777 C0            1 RES     
   21501 C0         697.8914  -559.4951  -500.5261 C0            1 RES     
   21502 C0         696.9203  -558.5722  -499.7862 C0            1 RES     
   21503 C0         697.3419  -558.3292  -498.3355 C0            1 RES     
   21504 H6         702.8119  -561.1144  -505.0551 H6            1 RES     
   21505 H6         704.4617  -561.2267  -505.6331 H6            1 RES     
   21506 H6         705.1211  -559.3224  -504.4391 H6            1 RES     
   21507 H6         702.3722  -559.0276  -505.8592 H6            1 RES     
   21508 H6         703.9759  -559.2098  -506.6411 H6            1 RES     
   21509 H6         704.6484  -556.9639  -505.7384 H6            1 RES     
   21510 H6         703.0341  -556.8134  -504.9616 H6            1 RES     
   21511 H6         702.9940  -555.5591  -507.0218 H6            1 RES     
   21512 H6         701.8619  -556.9289  -507.1186 H6            1 RES     
   21513 H6         703.0570  -556.5660  -509.2529 H6            1 RES     
   21514 H6         703.3856  -558.1918  -508.5929 H6            1 RES     
   21515 H6         705.6186  -557.4896  -507.7957 H6            1 RES     
   21516 H6         705.4032  -557.2046  -509.5532 H6            1 RES     
   21517 H6         705.1548  -555.0664  -507.3340 H6            1 RES     
   21518 H6         704.9645  -554.7487  -509.0961 H6            1 RES     
   21519 H6         707.1810  -554.0927  -508.1344 H6            1 RES     
   21520 H6         707.4806  -555.7981  -507.6401 H6            1 RES     
   21521 H6         707.4543  -556.4650  -510.1046 H6            1 RES     
   21522 H6         707.0578  -554.7586  -510.5255 H6            1 RES     
   21523 H6         709.2446  -553.9997  -509.5827 H6            1 RES     
   21524 H6         709.4173  -555.1820  -510.9285 H6            1 RES     
   21525 H6         709.7161  -555.8518  -507.9284 H6            1 RES     
   21526 H6         709.8271  -557.0282  -509.3011 H6            1 RES     
   21527 H6         711.0273  -555.6906  -509.1410 H6            1 RES     
   21528 H6         703.8235  -557.8057  -503.1266 H6            1 RES     
   21529 H6         704.0146  -559.3179  -502.3035 H6            1 RES     
   21530 H6         701.5739  -557.7858  -502.7918 H6            1 RES     
   21531 H6         701.4013  -559.2885  -503.7666 H6            1 RES     
   21532 H6         702.1057  -559.1206  -500.7276 H6            1 RES     
   21533 H6         702.1051  -560.5371  -501.7675 H6            1 RES     
   21534 H6         699.7484  -560.4188  -502.2349 H6            1 RES     
   21535 H6         700.2137  -560.7766  -500.5598 H6            1 RES     
   21536 H6         699.7415  -558.5335  -499.8269 H6            1 RES     
   21537 H6         699.2062  -558.0238  -501.4802 H6            1 RES     
   21538 H6         697.4508  -559.7630  -501.5131 H6            1 RES     
   21539 H6         697.9814  -560.4337  -499.9332 H6            1 RES     
   21540 H6         695.9283  -559.0747  -499.7631 H6            1 RES     
   21541 H6         696.8142  -557.6096  -500.3292 H6            1 RES     
   21542 H6         698.3094  -557.7928  -498.2777 H6            1 RES     
   21543 H6         696.5734  -557.7143  -497.8245 H6            1 RES     
   21544 H6         697.4311  -559.2984  -497.7956 H6            1 RES     
   21545 C0         704.1072  -563.6317  -504.6086 C0            1 RES     
   21546 C0         703.4823  -563.8673  -506.0578 C0            1 RES     
   21547 C0         703.2466  -565.4096  -506.1924 C0            1 RES     
   21548 C0         702.8964  -565.9091  -507.6087 C0            1 RES     
   21549 C0         702.6501  -567.4260  -507.6897 C0            1 RES     
   21550 C0         703.8332  -568.3185  -507.2742 C0            1 RES     
   21551 C0         705.1562  -568.0314  -508.0035 C0            1 RES     
   21552 C0         705.0494  -568.1481  -509.5343 C0            1 RES     
   21553 C0         706.3785  -567.8532  -510.2483 C0            1 RES     
   21554 C0         707.4618  -568.9069  -509.9562 C0            1 RES     
   21555 C0         708.7491  -568.6844  -510.7651 C0            1 RES     
   21556 C0         709.4796  -567.3938  -510.3938 C0            1 RES     
   21557 C0         702.2754  -563.0469  -506.6801 C0            1 RES     
   21558 C0         700.8296  -563.1558  -506.1182 C0            1 RES     
   21559 C0         700.4116  -561.9024  -505.3286 C0            1 RES     
   21560 C0         699.0367  -561.9320  -504.6817 C0            1 RES     
   21561 C0         697.8350  -561.8079  -505.6078 C0            1 RES     
   21562 C0         696.5850  -561.6877  -504.7122 C0            1 RES     
   21563 C0         695.2873  -561.3994  -505.4691 C0            1 RES     
   21564 C0         695.2797  -560.0056  -506.0988 C0            1 RES     
   21565 H6         703.7397  -564.4343  -503.9277 H6            1 RES     
   21566 H6         705.1732  -563.9339  -504.7196 H6            1 RES     
   21567 H6         704.3142  -563.5986  -506.7491 H6            1 RES     
   21568 H6         702.4333  -565.7144  -505.4989 H6            1 RES     
   21569 H6         704.1784  -565.9241  -505.8732 H6            1 RES     
   21570 H6         703.7024  -565.6128  -508.3123 H6            1 RES     
   21571 H6         701.9462  -565.4564  -507.9524 H6            1 RES     
   21572 H6         702.3678  -567.6669  -508.7368 H6            1 RES     
   21573 H6         701.7768  -567.6892  -507.0532 H6            1 RES     
   21574 H6         703.5402  -569.3764  -507.4524 H6            1 RES     
   21575 H6         704.0102  -568.2080  -506.1831 H6            1 RES     
   21576 H6         705.5133  -567.0133  -507.7384 H6            1 RES     
   21577 H6         705.8969  -568.7612  -507.6178 H6            1 RES     
   21578 H6         704.3165  -567.3994  -509.9011 H6            1 RES     
   21579 H6         704.6860  -569.1591  -509.8192 H6            1 RES     
   21580 H6         706.1800  -567.8546  -511.3422 H6            1 RES     
   21581 H6         706.7234  -566.8379  -509.9586 H6            1 RES     
   21582 H6         707.7201  -568.9239  -508.8773 H6            1 RES     
   21583 H6         707.0572  -569.9043  -510.2351 H6            1 RES     
   21584 H6         708.5155  -568.6820  -511.8520 H6            1 RES     
   21585 H6         709.4345  -569.5350  -510.5606 H6            1 RES     
   21586 H6         708.8647  -566.5010  -510.6256 H6            1 RES     
   21587 H6         709.7360  -567.3951  -509.3129 H6            1 RES     
   21588 H6         710.4195  -567.3230  -510.9807 H6            1 RES     
   21589 H6         702.2089  -563.3992  -507.7258 H6            1 RES     
   21590 H6         702.5345  -561.9964  -506.9101 H6            1 RES     
   21591 H6         700.1315  -563.1805  -506.9839 H6            1 RES     
   21592 H6         700.6931  -564.1008  -505.5543 H6            1 RES     
   21593 H6         700.5101  -560.9949  -505.9667 H6            1 RES     
   21594 H6         701.0613  -561.7777  -504.4695 H6            1 RES     
   21595 H6         698.9478  -562.8230  -504.0229 H6            1 RES     
   21596 H6         698.9973  -561.0199  -504.0637 H6            1 RES     
   21597 H6         697.9694  -560.8884  -506.2159 H6            1 RES     
   21598 H6         697.7560  -562.6852  -506.2831 H6            1 RES     
   21599 H6         696.4694  -562.6420  -504.1525 H6            1 RES     
   21600 H6         696.7230  -560.8738  -503.9635 H6            1 RES     
   21601 H6         694.4581  -561.4349  -504.7288 H6            1 RES     
   21602 H6         695.1116  -562.1790  -506.2366 H6            1 RES     
   21603 H6         696.0592  -559.9098  -506.8805 H6            1 RES     
   21604 H6         694.2920  -559.8218  -506.5693 H6            1 RES     
   21605 H6         695.4475  -559.2300  -505.3197 H6            1 RES     
   21606 C0         716.9127  -560.1280  -502.9137 C0            1 RES     
   21607 C1         715.5538  -560.4273  -502.2431 C1            1 RES     
   21608 C1         715.6942  -560.8873  -500.9727 C1            1 RES     
   21609 S2         714.2447  -561.3088  -500.2490 S2            1 RES     
   21610 C1         713.3582  -560.9257  -501.6483 C1            1 RES     
   21611 C1         714.2134  -560.4769  -502.6606 C1            1 RES     
   21612 C1         717.0703  -560.9791  -500.6714 C1            1 RES     
   21613 C1         717.7932  -560.6406  -501.7731 C1            1 RES     
   21614 C1         719.1560  -560.8456  -501.5942 C1            1 RES     
   21615 C1         719.4192  -561.3175  -500.2972 C1            1 RES     
   21616 S2         717.9953  -561.4967  -499.3896 S2            1 RES     
   21617 H3         713.8506  -560.2580  -503.6469 H3            1 RES     
   21618 H3         719.9085  -560.6701  -502.3537 H3            1 RES     
   21619 N4         722.5494  -561.4780  -498.2414 N4            1 RES     
   21620 C1         721.3557  -561.0426  -498.7410 C1            1 RES     
   21621 C1         720.7164  -561.7397  -499.7808 C1            1 RES     
   21622 C1         721.3248  -562.8976  -500.2686 C1            1 RES     
   21623 N4         720.7866  -563.6932  -501.2282 N4            1 RES     
   21624 S2         721.8983  -564.9113  -501.3379 S2            1 RES     
   21625 N4         723.0522  -564.4943  -500.2274 N4            1 RES     
   21626 C1         722.5546  -563.3397  -499.7195 C1            1 RES     
   21627 C1         723.1633  -562.6015  -498.7080 C1            1 RES     
   21628 H5         720.9043  -560.1424  -498.3330 H5            1 RES     
   21629 C0         717.3141  -558.6426  -503.2219 C0            1 RES     
   21630 C0         717.7317  -557.4765  -502.2484 C0            1 RES     
   21631 C0         717.8818  -556.2122  -503.1656 C0            1 RES     
   21632 C0         718.3588  -554.9200  -502.4909 C0            1 RES     
   21633 C0         718.4203  -553.7309  -503.4784 C0            1 RES     
   21634 C0         719.4108  -553.8831  -504.6538 C0            1 RES     
   21635 C0         720.8623  -554.1869  -504.2426 C0            1 RES     
   21636 C0         721.4580  -553.1236  -503.3028 C0            1 RES     
   21637 C0         722.8864  -553.4577  -502.8495 C0            1 RES     
   21638 C0         723.9115  -553.4126  -503.9952 C0            1 RES     
   21639 C0         725.3531  -553.6352  -503.5110 C0            1 RES     
   21640 C0         725.5902  -555.0377  -502.9497 C0            1 RES     
   21641 C0         716.8663  -557.1819  -500.9797 C0            1 RES     
   21642 C0         715.4000  -556.6804  -501.1566 C0            1 RES     
   21643 C0         714.4513  -557.6722  -500.4766 C0            1 RES     
   21644 C0         712.9618  -557.5709  -500.7926 C0            1 RES     
   21645 C0         712.1859  -556.4877  -500.0577 C0            1 RES     
   21646 C0         710.7075  -556.5955  -500.4867 C0            1 RES     
   21647 C0         709.7547  -555.6983  -499.6933 C0            1 RES     
   21648 C0         709.6156  -556.1444  -498.2363 C0            1 RES     
   21649 H6         716.5184  -558.2310  -503.7887 H6            1 RES     
   21650 H6         718.1932  -558.7326  -503.8994 H6            1 RES     
   21651 H6         718.7352  -557.7420  -501.8471 H6            1 RES     
   21652 H6         716.9037  -555.9892  -503.6453 H6            1 RES     
   21653 H6         718.6018  -556.4638  -503.9735 H6            1 RES     
   21654 H6         719.3455  -555.0822  -502.0115 H6            1 RES     
   21655 H6         717.6330  -554.6294  -501.7048 H6            1 RES     
   21656 H6         718.6835  -552.8188  -502.9039 H6            1 RES     
   21657 H6         717.4073  -553.5539  -503.9031 H6            1 RES     
   21658 H6         719.3921  -552.9402  -505.2446 H6            1 RES     
   21659 H6         719.0663  -554.6933  -505.3314 H6            1 RES     
   21660 H6         720.9025  -555.1804  -503.7484 H6            1 RES     
   21661 H6         721.4629  -554.2476  -505.1739 H6            1 RES     
   21662 H6         720.8441  -553.0769  -502.3803 H6            1 RES     
   21663 H6         721.4360  -552.1235  -503.7884 H6            1 RES     
   21664 H6         723.1827  -552.7013  -502.0903 H6            1 RES     
   21665 H6         722.8784  -554.4552  -502.3620 H6            1 RES     
   21666 H6         723.6742  -554.1695  -504.7712 H6            1 RES     
   21667 H6         723.8635  -552.4046  -504.4620 H6            1 RES     
   21668 H6         725.6139  -552.8762  -502.7414 H6            1 RES     
   21669 H6         726.0341  -553.4955  -504.3781 H6            1 RES     
   21670 H6         724.9753  -555.2209  -502.0456 H6            1 RES     
   21671 H6         725.3524  -555.8032  -503.7186 H6            1 RES     
   21672 H6         726.6573  -555.1427  -502.6622 H6            1 RES     
   21673 H6         717.3978  -556.4102  -500.3827 H6            1 RES     
   21674 H6         716.9104  -558.0711  -500.3151 H6            1 RES     
   21675 H6         715.2626  -555.6847  -500.6785 H6            1 RES     
   21676 H6         715.1581  -556.5824  -502.2344 H6            1 RES     
   21677 H6         714.6317  -557.7462  -499.3835 H6            1 RES     
   21678 H6         714.7254  -558.6101  -500.9107 H6            1 RES     
   21679 H6         712.8311  -557.4829  -501.8740 H6            1 RES     
   21680 H6         712.5099  -558.5417  -500.4860 H6            1 RES     
   21681 H6         712.2978  -556.6843  -498.9703 H6            1 RES     
   21682 H6         712.5816  -555.4763  -500.2894 H6            1 RES     
   21683 H6         710.6421  -556.3242  -501.5648 H6            1 RES     
   21684 H6         710.3472  -557.6442  -500.3824 H6            1 RES     
   21685 H6         708.7487  -555.7769  -500.1612 H6            1 RES     
   21686 H6         710.0863  -554.6401  -499.7485 H6            1 RES     
   21687 H6         710.5756  -556.0555  -497.6905 H6            1 RES     
   21688 H6         708.8654  -555.5084  -497.7242 H6            1 RES     
   21689 H6         709.2687  -557.2010  -498.1912 H6            1 RES     
   21690 C0         716.9419  -561.0345  -504.2072 C0            1 RES     
   21691 C0         716.9005  -560.5080  -505.7129 C0            1 RES     
   21692 C0         716.4012  -561.7075  -506.5872 C0            1 RES     
   21693 C0         716.5335  -561.5209  -508.1123 C0            1 RES     
   21694 C0         716.0093  -562.7131  -508.9322 C0            1 RES     
   21695 C0         716.7048  -564.0612  -508.6715 C0            1 RES     
   21696 C0         718.2356  -564.0457  -508.8161 C0            1 RES     
   21697 C0         718.7150  -563.5781  -510.2016 C0            1 RES     
   21698 C0         720.2470  -563.5634  -510.3281 C0            1 RES     
   21699 C0         720.8661  -564.9715  -510.2716 C0            1 RES     
   21700 C0         722.3820  -564.9712  -510.5227 C0            1 RES     
   21701 C0         723.1744  -564.2524  -509.4307 C0            1 RES     
   21702 C0         716.2489  -559.1420  -506.1888 C0            1 RES     
   21703 C0         714.7136  -558.9007  -506.1385 C0            1 RES     
   21704 C0         714.3084  -557.9378  -505.0080 C0            1 RES     
   21705 C0         712.8206  -557.6833  -504.8308 C0            1 RES     
   21706 C0         712.1386  -556.8157  -505.8792 C0            1 RES     
   21707 C0         710.6980  -556.5636  -505.3894 C0            1 RES     
   21708 C0         709.9003  -555.5774  -506.2445 C0            1 RES     
   21709 C0         710.4494  -554.1529  -506.1528 C0            1 RES     
   21710 H6         716.1688  -561.8287  -504.0863 H6            1 RES     
   21711 H6         717.8701  -561.6478  -504.1589 H6            1 RES     
   21712 H6         717.9739  -560.3417  -505.9623 H6            1 RES     
   21713 H6         715.3355  -561.9125  -506.3474 H6            1 RES     
   21714 H6         716.9938  -562.6037  -506.3035 H6            1 RES     
   21715 H6         717.5948  -561.3170  -508.3665 H6            1 RES     
   21716 H6         715.9204  -560.6629  -508.4497 H6            1 RES     
   21717 H6         716.1148  -562.4557  -510.0078 H6            1 RES     
   21718 H6         714.9217  -562.8405  -508.7379 H6            1 RES     
   21719 H6         716.2788  -564.8061  -509.3788 H6            1 RES     
   21720 H6         716.4591  -564.4078  -507.6450 H6            1 RES     
   21721 H6         718.6759  -563.3887  -508.0359 H6            1 RES     
   21722 H6         718.5838  -565.0809  -508.6232 H6            1 RES     
   21723 H6         718.3706  -562.5360  -510.3678 H6            1 RES     
   21724 H6         718.2784  -564.2198  -510.9973 H6            1 RES     
   21725 H6         720.4988  -563.1136  -511.3132 H6            1 RES     
   21726 H6         720.6662  -562.9129  -509.5314 H6            1 RES     
   21727 H6         720.6696  -565.4539  -509.2920 H6            1 RES     
   21728 H6         720.3933  -565.5885  -511.0668 H6            1 RES     
   21729 H6         722.6005  -564.5078  -511.5093 H6            1 RES     
   21730 H6         722.7252  -566.0278  -510.5534 H6            1 RES     
   21731 H6         722.9142  -563.1756  -509.3857 H6            1 RES     
   21732 H6         722.9789  -564.7212  -508.4428 H6            1 RES     
   21733 H6         724.2594  -564.3326  -509.6524 H6            1 RES     
   21734 H6         716.5218  -559.0604  -507.2569 H6            1 RES     
   21735 H6         716.8033  -558.2499  -505.8416 H6            1 RES     
   21736 H6         714.4246  -558.3670  -507.0706 H6            1 RES     
   21737 H6         714.1612  -559.8619  -506.1212 H6            1 RES     
   21738 H6         714.8477  -556.9694  -505.1155 H6            1 RES     
   21739 H6         714.5789  -558.3651  -504.0489 H6            1 RES     
   21740 H6         712.2853  -558.6482  -504.6956 H6            1 RES     
   21741 H6         712.7449  -557.0946  -503.9017 H6            1 RES     
   21742 H6         712.7009  -555.8604  -505.9463 H6            1 RES     
   21743 H6         712.1387  -557.3111  -506.8724 H6            1 RES     
   21744 H6         710.1637  -557.5391  -505.3744 H6            1 RES     
   21745 H6         710.7077  -556.1699  -504.3469 H6            1 RES     
   21746 H6         708.8617  -555.5602  -505.8472 H6            1 RES     
   21747 H6         709.8719  -555.9211  -507.2975 H6            1 RES     
   21748 H6         711.4733  -554.0854  -506.5711 H6            1 RES     
   21749 H6         709.7930  -553.4696  -506.7297 H6            1 RES     
   21750 H6         710.4653  -553.8137  -505.0937 H6            1 RES     
   21751 C0         728.4848  -563.2853  -497.8179 C0            1 RES     
   21752 C1         726.9423  -563.2779  -497.7382 C1            1 RES     
   21753 C1         726.4672  -564.1660  -496.8267 C1            1 RES     
   21754 S2         724.7959  -564.2493  -496.7808 S2            1 RES     
   21755 C1         724.6384  -563.1096  -498.0327 C1            1 RES     
   21756 C1         725.8985  -562.6852  -498.4682 C1            1 RES     
   21757 C1         727.5571  -564.8535  -496.2504 C1            1 RES     
   21758 C1         728.7098  -564.4451  -496.8466 C1            1 RES     
   21759 C1         729.8108  -565.1833  -496.4293 C1            1 RES     
   21760 C1         729.4322  -566.1358  -495.4683 C1            1 RES     
   21761 S2         727.7652  -566.0827  -495.1493 S2            1 RES     
   21762 H3         726.0101  -562.0222  -499.3050 H3            1 RES     
   21763 H3         730.8194  -565.0448  -496.7998 H3            1 RES     
   21764 N4         731.3844  -568.1321  -492.9674 N4            1 RES     
   21765 C1         730.6113  -567.1459  -493.5095 C1            1 RES     
   21766 C1         730.2941  -567.1543  -494.8788 C1            1 RES     
   21767 C1         730.7721  -568.2088  -495.6589 C1            1 RES     
   21768 N4         730.4919  -568.3671  -496.9779 N4            1 RES     
   21769 S2         731.2576  -569.7887  -497.3308 S2            1 RES     
   21770 N4         731.9442  -570.2352  -495.8929 N4            1 RES     
   21771 C1         731.5566  -569.2311  -495.0682 C1            1 RES     
   21772 C1         731.8666  -569.1661  -493.7124 C1            1 RES     
   21773 H5         730.2477  -566.3439  -492.8729 H5            1 RES     
   21774 C0         729.2932  -562.0426  -497.3032 C0            1 RES     
   21775 C0         729.5423  -561.5249  -495.8363 C0            1 RES     
   21776 C0         730.3164  -560.1706  -496.0068 C0            1 RES     
   21777 C0         730.7637  -559.4623  -494.7220 C0            1 RES     
   21778 C0         731.4695  -558.1163  -495.0096 C0            1 RES     
   21779 C0         732.7813  -558.2042  -495.8203 C0            1 RES     
   21780 C0         733.8485  -559.1405  -495.2265 C0            1 RES     
   21781 C0         734.2470  -558.7653  -493.7882 C0            1 RES     
   21782 C0         735.2703  -559.7339  -493.1782 C0            1 RES     
   21783 C0         736.6450  -559.6743  -493.8654 C0            1 RES     
   21784 C0         737.6926  -560.5622  -493.1752 C0            1 RES     
   21785 C0         737.3733  -562.0547  -493.2691 C0            1 RES     
   21786 C0         728.3373  -561.3919  -494.8488 C0            1 RES     
   21787 C0         727.2088  -560.3604  -495.1574 C0            1 RES     
   21788 C0         725.8753  -561.1047  -495.2753 C0            1 RES     
   21789 C0         724.6920  -560.3622  -495.8897 C0            1 RES     
   21790 C0         723.9510  -559.3964  -494.9767 C0            1 RES     
   21791 C0         722.7756  -558.7995  -495.7790 C0            1 RES     
   21792 C0         721.8125  -557.9498  -494.9468 C0            1 RES     
   21793 C0         721.0178  -558.7880  -493.9432 C0            1 RES     
   21794 H6         728.8965  -561.1996  -497.8089 H6            1 RES     
   21795 H6         730.3238  -562.2082  -497.6908 H6            1 RES     
   21796 H6         730.2219  -562.2606  -495.3512 H6            1 RES     
   21797 H6         729.6808  -559.4538  -496.5714 H6            1 RES     
   21798 H6         731.2204  -560.3724  -496.6203 H6            1 RES     
   21799 H6         731.4206  -560.1297  -494.1278 H6            1 RES     
   21800 H6         729.8717  -559.2172  -494.1109 H6            1 RES     
   21801 H6         731.6812  -557.6234  -494.0382 H6            1 RES     
   21802 H6         730.7711  -557.4453  -495.5572 H6            1 RES     
   21803 H6         733.2053  -557.1785  -495.9023 H6            1 RES     
   21804 H6         732.5601  -558.5436  -496.8548 H6            1 RES     
   21805 H6         733.4703  -560.1844  -495.2442 H6            1 RES     
   21806 H6         734.7366  -559.0911  -495.8902 H6            1 RES     
   21807 H6         733.3474  -558.8190  -493.1418 H6            1 RES     
   21808 H6         734.6395  -557.7253  -493.7553 H6            1 RES     
   21809 H6         735.4046  -559.4515  -492.1112 H6            1 RES     
   21810 H6         734.8509  -560.7612  -493.2161 H6            1 RES     
   21811 H6         736.5699  -559.9730  -494.9315 H6            1 RES     
   21812 H6         737.0086  -558.6246  -493.8198 H6            1 RES     
   21813 H6         737.7916  -560.2682  -492.1074 H6            1 RES     
   21814 H6         738.6718  -560.3912  -493.6724 H6            1 RES     
   21815 H6         736.4290  -562.3003  -492.7427 H6            1 RES     
   21816 H6         737.2932  -562.3629  -494.3332 H6            1 RES     
   21817 H6         738.1899  -562.6358  -492.7916 H6            1 RES     
   21818 H6         728.7485  -561.1265  -493.8513 H6            1 RES     
   21819 H6         727.9189  -562.4061  -494.6730 H6            1 RES     
   21820 H6         727.1191  -559.6153  -494.3353 H6            1 RES     
   21821 H6         727.4375  -559.8145  -496.0951 H6            1 RES     
   21822 H6         725.5910  -561.6127  -494.3298 H6            1 RES     
   21823 H6         726.0825  -561.8652  -495.9978 H6            1 RES     
   21824 H6         725.0191  -559.8645  -496.8058 H6            1 RES     
   21825 H6         723.9533  -561.1413  -496.1860 H6            1 RES     
   21826 H6         723.5807  -559.9832  -494.1095 H6            1 RES     
   21827 H6         724.6192  -558.5876  -494.6128 H6            1 RES     
   21828 H6         723.2004  -558.1685  -496.5923 H6            1 RES     
   21829 H6         722.1807  -559.6096  -496.2591 H6            1 RES     
   21830 H6         721.0806  -557.4874  -495.6451 H6            1 RES     
   21831 H6         722.3646  -557.1381  -494.4281 H6            1 RES     
   21832 H6         721.6803  -559.2516  -493.1860 H6            1 RES     
   21833 H6         720.2880  -558.1407  -493.4158 H6            1 RES     
   21834 H6         720.4564  -559.5892  -494.4739 H6            1 RES     
   21835 C0         728.8176  -563.6318  -499.3228 C0            1 RES     
   21836 C0         729.4881  -562.6412  -500.3789 C0            1 RES     
   21837 C0         729.1196  -563.1921  -501.7978 C0            1 RES     
   21838 C0         729.8775  -562.5522  -502.9785 C0            1 RES     
   21839 C0         729.4672  -563.1065  -504.3542 C0            1 RES     
   21840 C0         729.6870  -564.6160  -504.5595 C0            1 RES     
   21841 C0         731.1138  -565.1134  -504.2742 C0            1 RES     
   21842 C0         732.1890  -564.4061  -505.1177 C0            1 RES     
   21843 C0         733.6096  -564.9109  -504.8170 C0            1 RES     
   21844 C0         733.8281  -566.3736  -505.2435 C0            1 RES     
   21845 C0         735.2800  -566.8419  -505.0597 C0            1 RES     
   21846 C0         735.7181  -566.8888  -503.5958 C0            1 RES     
   21847 C0         729.3957  -561.0580  -500.3375 C0            1 RES     
   21848 C0         728.0589  -560.3044  -500.5882 C0            1 RES     
   21849 C0         727.4669  -559.7150  -499.2953 C0            1 RES     
   21850 C0         726.1255  -559.0114  -499.4194 C0            1 RES     
   21851 C0         726.1204  -557.6496  -500.0994 C0            1 RES     
   21852 C0         724.6979  -557.0734  -499.9459 C0            1 RES     
   21853 C0         724.5399  -555.6335  -500.4378 C0            1 RES     
   21854 C0         725.3097  -554.6358  -499.5711 C0            1 RES     
   21855 H6         727.9040  -564.0764  -499.7819 H6            1 RES     
   21856 H6         729.4914  -564.5184  -499.3156 H6            1 RES     
   21857 H6         730.5810  -562.8046  -500.2346 H6            1 RES     
   21858 H6         728.0287  -563.0618  -501.9657 H6            1 RES     
   21859 H6         729.3388  -564.2815  -501.8059 H6            1 RES     
   21860 H6         730.9699  -562.6769  -502.8245 H6            1 RES     
   21861 H6         729.6527  -561.4698  -503.0388 H6            1 RES     
   21862 H6         730.0404  -562.5509  -505.1269 H6            1 RES     
   21863 H6         728.3917  -562.8853  -504.5316 H6            1 RES     
   21864 H6         729.4192  -564.8588  -505.6111 H6            1 RES     
   21865 H6         728.9882  -565.1803  -503.9058 H6            1 RES     
   21866 H6         731.3463  -564.9770  -503.1964 H6            1 RES     
   21867 H6         731.1196  -566.2019  -504.4867 H6            1 RES     
   21868 H6         732.1776  -563.3222  -504.8783 H6            1 RES     
   21869 H6         731.9693  -564.5253  -506.2007 H6            1 RES     
   21870 H6         734.3205  -564.2740  -505.3871 H6            1 RES     
   21871 H6         733.8153  -564.7780  -503.7336 H6            1 RES     
   21872 H6         733.1614  -567.0570  -504.6783 H6            1 RES     
   21873 H6         733.5814  -566.4585  -506.3244 H6            1 RES     
   21874 H6         735.9648  -566.1805  -505.6336 H6            1 RES     
   21875 H6         735.3643  -567.8698  -505.4738 H6            1 RES     
   21876 H6         735.7068  -565.8789  -503.1386 H6            1 RES     
   21877 H6         735.0521  -567.5637  -503.0171 H6            1 RES     
   21878 H6         736.7559  -567.2790  -503.5364 H6            1 RES     
   21879 H6         730.0765  -560.7182  -501.1394 H6            1 RES     
   21880 H6         729.9521  -560.6105  -499.4925 H6            1 RES     
   21881 H6         728.2849  -559.4152  -501.2171 H6            1 RES     
   21882 H6         727.3460  -560.9384  -501.1532 H6            1 RES     
   21883 H6         728.2051  -559.0389  -498.8073 H6            1 RES     
   21884 H6         727.2374  -560.5149  -498.6002 H6            1 RES     
   21885 H6         725.3809  -559.6956  -499.8812 H6            1 RES     
   21886 H6         725.8239  -558.7964  -498.3810 H6            1 RES     
   21887 H6         726.8603  -557.0072  -499.5769 H6            1 RES     
   21888 H6         726.4004  -557.7342  -501.1701 H6            1 RES     
   21889 H6         723.9990  -557.7255  -500.5146 H6            1 RES     
   21890 H6         724.3848  -557.0973  -498.8766 H6            1 RES     
   21891 H6         723.4606  -555.3756  -500.3639 H6            1 RES     
   21892 H6         724.8516  -555.5560  -501.4983 H6            1 RES     
   21893 H6         726.4028  -554.8080  -499.6285 H6            1 RES     
   21894 H6         725.1015  -553.6056  -499.9259 H6            1 RES     
   21895 H6         724.9835  -554.7149  -498.5108 H6            1 RES     
   21896 C0         736.1165  -572.0141  -491.8670 C0            1 RES     
   21897 C1         734.7098  -571.4702  -492.2004 C1            1 RES     
   21898 C1         733.7313  -572.3785  -491.9498 C1            1 RES     
   21899 S2         732.2028  -571.8540  -492.3869 S2            1 RES     
   21900 C1         732.8059  -570.3790  -492.9797 C1            1 RES     
   21901 C1         734.1958  -570.3234  -492.8283 C1            1 RES     
   21902 C1         734.3259  -573.5710  -491.4838 C1            1 RES     
   21903 C1         735.6793  -573.4343  -491.5047 C1            1 RES     
   21904 C1         736.3349  -574.6196  -491.1942 C1            1 RES     
   21905 C1         735.4088  -575.6361  -490.9053 C1            1 RES     
   21906 S2         733.8073  -575.0898  -491.0468 S2            1 RES     
   21907 H3         734.7706  -569.5022  -493.2122 H3            1 RES     
   21908 H3         737.4114  -574.7414  -491.1827 H3            1 RES     
   21909 N4         735.7281  -578.9404  -489.1647 N4            1 RES     
   21910 C1         735.4690  -577.6178  -489.3834 C1            1 RES     
   21911 C1         735.7213  -577.0355  -490.6376 C1            1 RES     
   21912 C1         736.2205  -577.8518  -491.6541 C1            1 RES     
   21913 N4         736.4528  -577.4298  -492.9235 N4            1 RES     
   21914 S2         736.9598  -578.8163  -493.6666 S2            1 RES     
   21915 N4         736.9098  -579.9507  -492.4629 N4            1 RES     
   21916 C1         736.4625  -579.2265  -491.4074 C1            1 RES     
   21917 C1         736.2217  -579.7528  -490.1410 C1            1 RES     
   21918 H5         735.0723  -577.0119  -488.5734 H5            1 RES     
   21919 C0         736.9116  -571.4148  -490.6540 C0            1 RES     
   21920 C0         736.6731  -571.5660  -489.1041 C0            1 RES     
   21921 C0         737.7310  -570.6207  -488.4336 C0            1 RES     
   21922 C0         737.7832  -570.6170  -486.9007 C0            1 RES     
   21923 C0         738.8244  -569.6134  -486.3517 C0            1 RES     
   21924 C0         740.2941  -569.8896  -486.7384 C0            1 RES     
   21925 C0         740.8063  -571.2947  -486.3759 C0            1 RES     
   21926 C0         740.6808  -571.6139  -484.8756 C0            1 RES     
   21927 C0         741.1404  -573.0365  -484.5254 C0            1 RES     
   21928 C0         742.6505  -573.2510  -484.7236 C0            1 RES     
   21929 C0         743.1182  -574.6405  -484.2621 C0            1 RES     
   21930 C0         742.5393  -575.7803  -485.1011 C0            1 RES     
   21931 C0         735.2393  -571.3511  -488.5184 C0            1 RES     
   21932 C0         734.5815  -569.9399  -488.6108 C0            1 RES     
   21933 C0         733.2724  -570.0536  -489.3979 C0            1 RES     
   21934 C0         732.6216  -568.7663  -489.8960 C0            1 RES     
   21935 C0         731.8158  -567.9761  -488.8753 C0            1 RES     
   21936 C0         731.2136  -566.7525  -489.5974 C0            1 RES     
   21937 C0         730.2156  -565.9533  -488.7564 C0            1 RES     
   21938 C0         728.9266  -566.7333  -488.4887 C0            1 RES     
   21939 H6         736.9426  -570.3664  -490.8077 H6            1 RES     
   21940 H6         737.9470  -571.8014  -490.7888 H6            1 RES     
   21941 H6         736.9264  -572.6183  -488.8451 H6            1 RES     
   21942 H6         737.5440  -569.5735  -488.7573 H6            1 RES     
   21943 H6         738.7341  -570.9141  -488.8107 H6            1 RES     
   21944 H6         737.9886  -571.6396  -486.5239 H6            1 RES     
   21945 H6         736.8014  -570.2897  -486.5029 H6            1 RES     
   21946 H6         738.7413  -569.6010  -485.2452 H6            1 RES     
   21947 H6         738.5644  -568.5886  -486.6982 H6            1 RES     
   21948 H6         740.9319  -569.1306  -486.2330 H6            1 RES     
   21949 H6         740.4273  -569.7440  -487.8317 H6            1 RES     
   21950 H6         740.2443  -572.0518  -486.9625 H6            1 RES     
   21951 H6         741.8705  -571.3478  -486.6862 H6            1 RES     
   21952 H6         739.6122  -571.5542  -484.5849 H6            1 RES     
   21953 H6         741.2488  -570.8707  -484.2741 H6            1 RES     
   21954 H6         740.9042  -573.2106  -483.4530 H6            1 RES     
   21955 H6         740.5533  -573.7571  -485.1325 H6            1 RES     
   21956 H6         742.9356  -573.1128  -485.7871 H6            1 RES     
   21957 H6         743.1898  -572.4932  -484.1144 H6            1 RES     
   21958 H6         742.8527  -574.7919  -483.1930 H6            1 RES     
   21959 H6         744.2252  -574.6796  -484.3517 H6            1 RES     
   21960 H6         741.4353  -575.8285  -485.0113 H6            1 RES     
   21961 H6         742.8170  -575.6493  -486.1686 H6            1 RES     
   21962 H6         742.9522  -576.7465  -484.7428 H6            1 RES     
   21963 H6         735.2738  -571.6174  -487.4402 H6            1 RES     
   21964 H6         734.5721  -572.1347  -488.9372 H6            1 RES     
   21965 H6         734.3440  -569.5476  -487.5965 H6            1 RES     
   21966 H6         735.2746  -569.2279  -489.1031 H6            1 RES     
   21967 H6         732.5351  -570.7152  -488.8964 H6            1 RES     
   21968 H6         733.5724  -570.5366  -490.3034 H6            1 RES     
   21969 H6         733.3834  -568.1393  -490.3659 H6            1 RES     
   21970 H6         731.9058  -569.0662  -490.6949 H6            1 RES     
   21971 H6         731.0150  -568.6472  -488.4988 H6            1 RES     
   21972 H6         732.4488  -567.6480  -488.0239 H6            1 RES     
   21973 H6         732.0518  -566.0818  -489.8938 H6            1 RES     
   21974 H6         730.6915  -567.0683  -490.5292 H6            1 RES     
   21975 H6         729.9386  -565.0443  -489.3344 H6            1 RES     
   21976 H6         730.6848  -565.6337  -487.8022 H6            1 RES     
   21977 H6         729.1182  -567.6383  -487.8792 H6            1 RES     
   21978 H6         728.2116  -566.0891  -487.9378 H6            1 RES     
   21979 H6         728.4561  -567.0362  -489.4508 H6            1 RES     
   21980 C0         736.9273  -571.9151  -493.2192 C0            1 RES     
   21981 C0         738.1597  -570.9399  -493.4952 C0            1 RES     
   21982 C0         738.2655  -570.7902  -495.0505 C0            1 RES     
   21983 C0         739.5472  -570.1068  -495.5685 C0            1 RES     
   21984 C0         739.5978  -569.9596  -497.0995 C0            1 RES     
   21985 C0         739.5402  -571.2731  -497.8997 C0            1 RES     
   21986 C0         740.5918  -572.3242  -497.5073 C0            1 RES     
   21987 C0         742.0394  -571.8154  -497.6242 C0            1 RES     
   21988 C0         743.0776  -572.8760  -497.2236 C0            1 RES     
   21989 C0         743.1160  -574.0721  -498.1915 C0            1 RES     
   21990 C0         744.2363  -575.0721  -497.8658 C0            1 RES     
   21991 C0         744.0426  -575.7793  -496.5243 C0            1 RES     
   21992 C0         738.4118  -569.5527  -492.7678 C0            1 RES     
   21993 C0         737.4837  -568.3252  -492.9913 C0            1 RES     
   21994 C0         736.5785  -568.0462  -491.7780 C0            1 RES     
   21995 C0         735.5856  -566.9041  -491.9174 C0            1 RES     
   21996 C0         736.1496  -565.4906  -491.8822 C0            1 RES     
   21997 C0         734.9471  -564.5249  -491.8638 C0            1 RES     
   21998 C0         735.3181  -563.0531  -491.6732 C0            1 RES     
   21999 C0         735.8862  -562.7729  -490.2811 C0            1 RES     
   22000 H6         736.1934  -571.8057  -494.0513 H6            1 RES     
   22001 H6         737.3296  -572.9303  -493.4373 H6            1 RES     
   22002 H6         739.0426  -571.5313  -493.1594 H6            1 RES     
   22003 H6         737.3864  -570.2198  -495.4209 H6            1 RES     
   22004 H6         738.2229  -571.8087  -495.4928 H6            1 RES     
   22005 H6         740.4343  -570.6680  -495.2071 H6            1 RES     
   22006 H6         739.6099  -569.0685  -495.1892 H6            1 RES     
   22007 H6         740.5358  -569.4225  -497.3564 H6            1 RES     
   22008 H6         738.7563  -569.3132  -497.4328 H6            1 RES     
   22009 H6         739.6600  -571.0212  -498.9762 H6            1 RES     
   22010 H6         738.5348  -571.7306  -497.7813 H6            1 RES     
   22011 H6         740.4066  -572.6642  -496.4659 H6            1 RES     
   22012 H6         740.4392  -573.1932  -498.1793 H6            1 RES     
   22013 H6         742.1754  -570.9577  -496.9328 H6            1 RES     
   22014 H6         742.2417  -571.4635  -498.6589 H6            1 RES     
   22015 H6         744.0771  -572.3891  -497.2348 H6            1 RES     
   22016 H6         742.8656  -573.2111  -496.1861 H6            1 RES     
   22017 H6         742.1476  -574.6136  -498.1939 H6            1 RES     
   22018 H6         743.3011  -573.6813  -499.2159 H6            1 RES     
   22019 H6         745.2193  -574.5532  -497.8761 H6            1 RES     
   22020 H6         744.2463  -575.8477  -498.6617 H6            1 RES     
   22021 H6         744.0768  -575.0608  -495.6807 H6            1 RES     
   22022 H6         743.0714  -576.3184  -496.5112 H6            1 RES     
   22023 H6         744.8593  -576.5171  -496.3780 H6            1 RES     
   22024 H6         739.4095  -569.2313  -493.1190 H6            1 RES     
   22025 H6         738.6760  -569.6621  -491.6992 H6            1 RES     
   22026 H6         738.1292  -567.4224  -493.0658 H6            1 RES     
   22027 H6         736.9285  -568.4164  -493.9468 H6            1 RES     
   22028 H6         737.1959  -567.9013  -490.8625 H6            1 RES     
   22029 H6         735.9237  -568.8935  -491.6076 H6            1 RES     
   22030 H6         734.9505  -567.0626  -492.8159 H6            1 RES     
   22031 H6         734.9565  -566.9669  -491.0142 H6            1 RES     
   22032 H6         736.7474  -565.3875  -490.9521 H6            1 RES     
   22033 H6         736.8009  -565.2961  -492.7596 H6            1 RES     
   22034 H6         734.4019  -564.6355  -492.8270 H6            1 RES     
   22035 H6         734.2427  -564.8005  -491.0454 H6            1 RES     
   22036 H6         734.3827  -562.4604  -491.7766 H6            1 RES     
   22037 H6         736.0296  -562.7336  -492.4602 H6            1 RES     
   22038 H6         736.8465  -563.3023  -490.1212 H6            1 RES     
   22039 H6         736.0678  -561.6840  -490.1721 H6            1 RES     
   22040 H6         735.1615  -563.0883  -489.4987 H6            1 RES     
   22041 C0         738.6606  -584.4081  -488.7416 C0            1 RES     
   22042 C1         737.6562  -583.3076  -489.1487 C1            1 RES     
   22043 C1         736.4831  -583.8203  -489.6028 C1            1 RES     
   22044 S2         735.4062  -582.6561  -490.1391 S2            1 RES     
   22045 C1         736.5040  -581.3979  -489.8188 C1            1 RES     
   22046 C1         737.6977  -581.9115  -489.3000 C1            1 RES     
   22047 C1         736.5668  -585.2294  -489.5891 C1            1 RES     
   22048 C1         737.8135  -585.5999  -489.1900 C1            1 RES     
   22049 C1         738.0143  -586.9714  -489.2897 C1            1 RES     
   22050 C1         736.8491  -587.6101  -489.7462 C1            1 RES     
   22051 S2         735.5959  -586.5025  -490.0398 S2            1 RES     
   22052 H3         738.5435  -581.2800  -489.1049 H3            1 RES     
   22053 H3         738.9439  -587.4750  -489.0525 H3            1 RES     
   22054 N4         735.7190  -591.1833  -489.6738 N4            1 RES     
   22055 C1         735.8666  -589.8703  -489.3298 C1            1 RES     
   22056 C1         736.7129  -589.0260  -490.0692 C1            1 RES     
   22057 C1         737.3765  -589.5626  -491.1739 C1            1 RES     
   22058 N4         738.1755  -588.8442  -492.0040 N4            1 RES     
   22059 S2         738.6125  -589.9709  -493.1317 S2            1 RES     
   22060 N4         737.8442  -591.3487  -492.6321 N4            1 RES     
   22061 C1         737.1912  -590.9241  -491.5221 C1            1 RES     
   22062 C1         736.3627  -591.7284  -490.7439 C1            1 RES     
   22063 H5         735.3288  -589.4816  -488.4693 H5            1 RES     
   22064 C0         739.0272  -584.6010  -487.2280 C0            1 RES     
   22065 C0         738.1727  -585.1801  -486.0379 C0            1 RES     
   22066 C0         739.0634  -584.9830  -484.7612 C0            1 RES     
   22067 C0         738.5094  -585.5289  -483.4393 C0            1 RES     
   22068 C0         739.4458  -585.2332  -482.2441 C0            1 RES     
   22069 C0         740.8484  -585.8765  -482.3131 C0            1 RES     
   22070 C0         740.8521  -587.4033  -482.5055 C0            1 RES     
   22071 C0         740.0807  -588.1518  -481.4040 C0            1 RES     
   22072 C0         740.0384  -589.6701  -481.6285 C0            1 RES     
   22073 C0         741.4167  -590.3402  -481.4984 C0            1 RES     
   22074 C0         741.3453  -591.8714  -481.6109 C0            1 RES     
   22075 C0         740.9052  -592.3538  -482.9936 C0            1 RES     
   22076 C0         736.7104  -584.6717  -485.8176 C0            1 RES     
   22077 C0         736.4721  -583.1797  -485.4305 C0            1 RES     
   22078 C0         735.5872  -582.5262  -486.4962 C0            1 RES     
   22079 C0         735.4869  -581.0035  -486.5092 C0            1 RES     
   22080 C0         734.5421  -580.3786  -485.4931 C0            1 RES     
   22081 C0         734.5589  -578.8513  -485.7130 C0            1 RES     
   22082 C0         733.5150  -578.0861  -484.8964 C0            1 RES     
   22083 C0         732.0865  -578.3802  -485.3593 C0            1 RES     
   22084 H6         739.3475  -583.6535  -486.8765 H6            1 RES     
   22085 H6         739.9188  -585.2677  -487.2462 H6            1 RES     
   22086 H6         738.0641  -586.2715  -486.2268 H6            1 RES     
   22087 H6         739.2555  -583.8979  -484.6124 H6            1 RES     
   22088 H6         740.0419  -585.4735  -484.9522 H6            1 RES     
   22089 H6         738.3184  -586.6178  -483.5268 H6            1 RES     
   22090 H6         737.5494  -585.0240  -483.2098 H6            1 RES     
   22091 H6         738.9403  -585.5746  -481.3173 H6            1 RES     
   22092 H6         739.5767  -584.1329  -482.1440 H6            1 RES     
   22093 H6         741.3877  -585.6293  -481.3716 H6            1 RES     
   22094 H6         741.4285  -585.4215  -483.1442 H6            1 RES     
   22095 H6         740.4129  -587.6486  -483.4954 H6            1 RES     
   22096 H6         741.9121  -587.7318  -482.5148 H6            1 RES     
   22097 H6         739.0259  -587.8092  -481.4096 H6            1 RES     
   22098 H6         740.5163  -587.9258  -480.4061 H6            1 RES     
   22099 H6         739.3681  -590.1048  -480.8552 H6            1 RES     
   22100 H6         739.5928  -589.8677  -482.6261 H6            1 RES     
   22101 H6         742.1191  -589.9575  -482.2675 H6            1 RES     
   22102 H6         741.8270  -590.0937  -480.4948 H6            1 RES     
   22103 H6         740.6553  -592.2746  -480.8379 H6            1 RES     
   22104 H6         742.3601  -592.2798  -481.4145 H6            1 RES     
   22105 H6         739.8737  -592.0221  -483.2285 H6            1 RES     
   22106 H6         741.6010  -591.9733  -483.7713 H6            1 RES     
   22107 H6         740.9191  -593.4636  -483.0170 H6            1 RES     
   22108 H6         736.2592  -585.2872  -485.0101 H6            1 RES     
   22109 H6         736.1056  -584.9594  -486.7041 H6            1 RES     
   22110 H6         735.9491  -583.1045  -484.4508 H6            1 RES     
   22111 H6         737.4418  -582.6483  -485.3462 H6            1 RES     
   22112 H6         734.5856  -583.0010  -486.5616 H6            1 RES     
   22113 H6         736.1032  -582.7403  -487.4079 H6            1 RES     
   22114 H6         736.4902  -580.5785  -486.4262 H6            1 RES     
   22115 H6         735.0948  -580.7241  -487.5136 H6            1 RES     
   22116 H6         733.5307  -580.7951  -485.6859 H6            1 RES     
   22117 H6         734.8458  -580.6215  -484.4529 H6            1 RES     
   22118 H6         735.5720  -578.4765  -485.4423 H6            1 RES     
   22119 H6         734.3884  -578.6106  -486.7871 H6            1 RES     
   22120 H6         733.6960  -576.9995  -485.0505 H6            1 RES     
   22121 H6         733.6302  -578.3118  -483.8155 H6            1 RES     
   22122 H6         731.8178  -579.4429  -485.1990 H6            1 RES     
   22123 H6         731.3747  -577.7522  -484.7859 H6            1 RES     
   22124 H6         731.9768  -578.1369  -486.4398 H6            1 RES     
   22125 C0         739.9369  -584.1520  -489.6366 C0            1 RES     
   22126 C0         741.3615  -583.6656  -489.1074 C0            1 RES     
   22127 C0         742.0994  -583.0373  -490.3375 C0            1 RES     
   22128 C0         743.5982  -582.7374  -490.1337 C0            1 RES     
   22129 C0         744.2768  -582.0995  -491.3587 C0            1 RES     
   22130 C0         744.2483  -582.9364  -492.6502 C0            1 RES     
   22131 C0         744.8002  -584.3653  -492.5153 C0            1 RES     
   22132 C0         746.2511  -584.4157  -492.0050 C0            1 RES     
   22133 C0         746.7858  -585.8507  -491.8709 C0            1 RES     
   22134 C0         746.9349  -586.5634  -493.2270 C0            1 RES     
   22135 C0         747.5856  -587.9503  -493.1079 C0            1 RES     
   22136 C0         746.7297  -588.9541  -492.3353 C0            1 RES     
   22137 C0         741.6085  -582.8112  -487.7937 C0            1 RES     
   22138 C0         741.1396  -581.3335  -487.6724 C0            1 RES     
   22139 C0         739.9173  -581.1804  -486.7494 C0            1 RES     
   22140 C0         739.3386  -579.7818  -486.6120 C0            1 RES     
   22141 C0         740.1414  -578.7796  -485.7946 C0            1 RES     
   22142 C0         739.2747  -577.5111  -485.6575 C0            1 RES     
   22143 C0         739.8571  -576.4415  -484.7318 C0            1 RES     
   22144 C0         739.8802  -576.8890  -483.2695 C0            1 RES     
   22145 H6         739.6325  -583.5009  -490.4889 H6            1 RES     
   22146 H6         740.1567  -585.1010  -490.1763 H6            1 RES     
   22147 H6         741.8869  -584.6161  -488.8571 H6            1 RES     
   22148 H6         741.5863  -582.0945  -490.6258 H6            1 RES     
   22149 H6         742.0092  -583.7487  -491.1865 H6            1 RES     
   22150 H6         744.1240  -583.6722  -489.8468 H6            1 RES     
   22151 H6         743.7354  -581.9946  -489.3241 H6            1 RES     
   22152 H6         745.3339  -581.8903  -491.0886 H6            1 RES     
   22153 H6         743.7995  -581.1175  -491.5711 H6            1 RES     
   22154 H6         744.8334  -582.3904  -493.4223 H6            1 RES     
   22155 H6         743.2029  -583.0042  -493.0199 H6            1 RES     
   22156 H6         744.1510  -584.9512  -491.8301 H6            1 RES     
   22157 H6         744.7351  -584.8277  -493.5213 H6            1 RES     
   22158 H6         746.2912  -583.9637  -490.9920 H6            1 RES     
   22159 H6         746.9157  -583.8281  -492.6746 H6            1 RES     
   22160 H6         747.7904  -585.7924  -491.3980 H6            1 RES     
   22161 H6         746.1152  -586.4213  -491.1938 H6            1 RES     
   22162 H6         745.9513  -586.6756  -493.7281 H6            1 RES     
   22163 H6         747.5886  -585.9394  -493.8748 H6            1 RES     
   22164 H6         748.5822  -587.8586  -492.6241 H6            1 RES     
   22165 H6         747.7350  -588.3487  -494.1346 H6            1 RES     
   22166 H6         746.5884  -588.6376  -491.2822 H6            1 RES     
   22167 H6         745.7381  -589.0685  -492.8228 H6            1 RES     
   22168 H6         747.2379  -589.9412  -492.3301 H6            1 RES     
   22169 H6         742.7082  -582.7776  -487.6858 H6            1 RES     
   22170 H6         741.4008  -583.3719  -486.8630 H6            1 RES     
   22171 H6         741.9451  -580.7644  -487.1580 H6            1 RES     
   22172 H6         740.9987  -580.8785  -488.6736 H6            1 RES     
   22173 H6         740.1413  -581.5980  -485.7416 H6            1 RES     
   22174 H6         739.0781  -581.7313  -487.1593 H6            1 RES     
   22175 H6         739.0890  -579.3754  -487.6162 H6            1 RES     
   22176 H6         738.4087  -579.9179  -486.0356 H6            1 RES     
   22177 H6         740.3330  -579.2311  -484.7983 H6            1 RES     
   22178 H6         741.1103  -578.5468  -486.2836 H6            1 RES     
   22179 H6         739.1413  -577.0739  -486.6715 H6            1 RES     
   22180 H6         738.2637  -577.7741  -485.2694 H6            1 RES     
   22181 H6         739.1940  -575.5511  -484.7972 H6            1 RES     
   22182 H6         740.8720  -576.1541  -485.0714 H6            1 RES     
   22183 H6         740.5574  -577.7534  -483.1207 H6            1 RES     
   22184 H6         740.2408  -576.0526  -482.6362 H6            1 RES     
   22185 H6         738.8563  -577.1665  -482.9354 H6            1 RES     
   22186 C0         736.9595  -597.1272  -491.0175 C0            1 RES     
   22187 C1         736.4664  -595.6678  -491.1301 C1            1 RES     
   22188 C1         735.4837  -595.5240  -492.0569 C1            1 RES     
   22189 S2         734.9908  -593.9384  -492.2698 S2            1 RES     
   22190 C1         736.1239  -593.3644  -491.1395 C1            1 RES     
   22191 C1         736.8721  -594.4247  -490.6165 C1            1 RES     
   22192 C1         735.2409  -596.7766  -492.6607 C1            1 RES     
   22193 C1         736.1152  -597.6914  -492.1612 C1            1 RES     
   22194 C1         736.0297  -598.9153  -492.8139 C1            1 RES     
   22195 C1         735.0271  -598.8822  -493.7977 C1            1 RES     
   22196 S2         734.2689  -597.3648  -493.8756 S2            1 RES     
   22197 H3         737.6906  -594.2565  -489.9427 H3            1 RES     
   22198 H3         736.6549  -599.7728  -492.5957 H3            1 RES     
   22199 N4         733.1981  -601.5800  -495.6490 N4            1 RES     
   22200 C1         733.4858  -600.6188  -494.7230 C1            1 RES     
   22201 C1         734.7185  -599.9438  -494.7492 C1            1 RES     
   22202 C1         735.6256  -600.2685  -495.7595 C1            1 RES     
   22203 N4         736.8237  -599.6537  -495.9325 N4            1 RES     
   22204 S2         737.4067  -600.3971  -497.2887 S2            1 RES     
   22205 N4         736.2195  -601.4786  -497.6877 N4            1 RES     
   22206 C1         735.2951  -601.2564  -496.7208 C1            1 RES     
   22207 C1         734.0720  -601.9167  -496.6388 C1            1 RES     
   22208 H5         732.7542  -600.3835  -493.9549 H5            1 RES     
   22209 C0         736.6502  -597.9515  -489.7184 C0            1 RES     
   22210 C0         735.2920  -598.5502  -489.1903 C0            1 RES     
   22211 C0         735.6299  -599.1477  -487.7792 C0            1 RES     
   22212 C0         734.4957  -599.8733  -487.0449 C0            1 RES     
   22213 C0         734.9282  -600.3742  -485.6467 C0            1 RES     
   22214 C0         736.0649  -601.4199  -485.6286 C0            1 RES     
   22215 C0         735.8054  -602.6737  -486.4823 C0            1 RES     
   22216 C0         734.5187  -603.4185  -486.0845 C0            1 RES     
   22217 C0         734.2327  -604.6370  -486.9739 C0            1 RES     
   22218 C0         735.2636  -605.7658  -486.8045 C0            1 RES     
   22219 C0         734.9048  -607.0234  -487.6119 C0            1 RES     
   22220 C0         734.9475  -606.8009  -489.1242 C0            1 RES     
   22221 C0         734.0128  -597.6515  -489.1561 C0            1 RES     
   22222 C0         733.9788  -596.4092  -488.2137 C0            1 RES     
   22223 C0         733.7517  -595.1519  -489.0586 C0            1 RES     
   22224 C0         734.0046  -593.7953  -488.4070 C0            1 RES     
   22225 C0         732.9009  -593.2607  -487.5061 C0            1 RES     
   22226 C0         733.3406  -591.8715  -486.9982 C0            1 RES     
   22227 C0         732.2578  -591.1103  -486.2299 C0            1 RES     
   22228 C0         731.0990  -590.6810  -487.1322 C0            1 RES     
   22229 H6         737.0080  -597.3719  -488.9062 H6            1 RES     
   22230 H6         737.3055  -598.8478  -489.8017 H6            1 RES     
   22231 H6         735.0274  -599.3879  -489.8736 H6            1 RES     
   22232 H6         735.9834  -598.3321  -487.1110 H6            1 RES     
   22233 H6         736.4697  -599.8639  -487.9072 H6            1 RES     
   22234 H6         734.1183  -600.7137  -487.6622 H6            1 RES     
   22235 H6         733.6605  -599.1649  -486.8727 H6            1 RES     
   22236 H6         734.0376  -600.8044  -485.1438 H6            1 RES     
   22237 H6         735.2496  -599.5063  -485.0292 H6            1 RES     
   22238 H6         736.2316  -601.7295  -484.5727 H6            1 RES     
   22239 H6         737.0097  -600.9521  -485.9789 H6            1 RES     
   22240 H6         735.7473  -602.3824  -487.5523 H6            1 RES     
   22241 H6         736.6826  -603.3426  -486.3608 H6            1 RES     
   22242 H6         733.6552  -602.7342  -486.2110 H6            1 RES     
   22243 H6         734.5661  -603.7279  -485.0174 H6            1 RES     
   22244 H6         733.2346  -605.0343  -486.6872 H6            1 RES     
   22245 H6         734.1825  -604.2995  -488.0304 H6            1 RES     
   22246 H6         736.2772  -605.4266  -487.1027 H6            1 RES     
   22247 H6         735.2907  -606.0502  -485.7299 H6            1 RES     
   22248 H6         733.8961  -607.3862  -487.3164 H6            1 RES     
   22249 H6         735.6431  -607.8159  -487.3630 H6            1 RES     
   22250 H6         734.1924  -606.0552  -489.4448 H6            1 RES     
   22251 H6         735.9581  -606.4581  -489.4323 H6            1 RES     
   22252 H6         734.7232  -607.7566  -489.6425 H6            1 RES     
   22253 H6         733.1568  -598.2970  -488.8647 H6            1 RES     
   22254 H6         733.7570  -597.3719  -490.2006 H6            1 RES     
   22255 H6         733.1441  -596.4913  -487.4819 H6            1 RES     
   22256 H6         734.9290  -596.3346  -487.6470 H6            1 RES     
   22257 H6         732.7780  -595.1726  -489.5918 H6            1 RES     
   22258 H6         734.5227  -595.2107  -489.7971 H6            1 RES     
   22259 H6         734.9619  -593.8245  -487.8808 H6            1 RES     
   22260 H6         734.1106  -593.0631  -489.2396 H6            1 RES     
   22261 H6         731.9814  -593.1833  -488.1242 H6            1 RES     
   22262 H6         732.7101  -593.9414  -486.6497 H6            1 RES     
   22263 H6         734.2218  -592.0125  -486.3320 H6            1 RES     
   22264 H6         733.6632  -591.2297  -487.8495 H6            1 RES     
   22265 H6         732.7206  -590.1847  -485.8221 H6            1 RES     
   22266 H6         731.8865  -591.7213  -485.3804 H6            1 RES     
   22267 H6         730.5608  -591.5561  -487.5468 H6            1 RES     
   22268 H6         730.3777  -590.0761  -486.5461 H6            1 RES     
   22269 H6         731.4790  -590.0571  -487.9718 H6            1 RES     
   22270 C0         738.5068  -597.0642  -491.3296 C0            1 RES     
   22271 C0         739.6787  -597.3489  -490.2848 C0            1 RES     
   22272 C0         740.9593  -596.6511  -490.8555 C0            1 RES     
   22273 C0         742.2838  -597.0116  -490.1528 C0            1 RES     
   22274 C0         743.5116  -596.2856  -490.7303 C0            1 RES     
   22275 C0         743.8074  -596.5516  -492.2172 C0            1 RES     
   22276 C0         743.9306  -598.0348  -492.6039 C0            1 RES     
   22277 C0         745.0145  -598.7863  -491.8111 C0            1 RES     
   22278 C0         745.1213  -600.2682  -492.2058 C0            1 RES     
   22279 C0         745.6286  -600.4695  -493.6450 C0            1 RES     
   22280 C0         745.8555  -601.9472  -494.0002 C0            1 RES     
   22281 C0         744.5658  -602.7679  -494.0203 C0            1 RES     
   22282 C0         739.5730  -597.1555  -488.7137 C0            1 RES     
   22283 C0         739.4342  -595.7492  -488.0648 C0            1 RES     
   22284 C0         738.0148  -595.4882  -487.5295 C0            1 RES     
   22285 C0         737.7541  -594.1156  -486.9315 C0            1 RES     
   22286 C0         738.3722  -593.8265  -485.5707 C0            1 RES     
   22287 C0         737.8256  -592.4607  -485.1073 C0            1 RES     
   22288 C0         738.2193  -592.0701  -483.6816 C0            1 RES     
   22289 C0         737.5670  -592.9707  -482.6316 C0            1 RES     
   22290 H6         738.7137  -596.0955  -491.8414 H6            1 RES     
   22291 H6         738.7045  -597.7778  -492.1613 H6            1 RES     
   22292 H6         739.8390  -598.4489  -490.3636 H6            1 RES     
   22293 H6         740.8232  -595.5490  -490.8092 H6            1 RES     
   22294 H6         741.0543  -596.9391  -491.9245 H6            1 RES     
   22295 H6         742.4335  -598.1109  -490.1932 H6            1 RES     
   22296 H6         742.2532  -596.7001  -489.0907 H6            1 RES     
   22297 H6         744.3957  -596.5856  -490.1281 H6            1 RES     
   22298 H6         743.3864  -595.1890  -490.5923 H6            1 RES     
   22299 H6         744.7537  -596.0274  -492.4748 H6            1 RES     
   22300 H6         743.0043  -596.0993  -492.8373 H6            1 RES     
   22301 H6         742.9524  -598.5400  -492.4552 H6            1 RES     
   22302 H6         744.1649  -598.0625  -493.6876 H6            1 RES     
   22303 H6         744.7530  -598.7608  -490.7326 H6            1 RES     
   22304 H6         746.0008  -598.2906  -491.9416 H6            1 RES     
   22305 H6         745.8455  -600.7494  -491.5128 H6            1 RES     
   22306 H6         744.1306  -600.7495  -492.0627 H6            1 RES     
   22307 H6         744.9223  -600.0329  -494.3809 H6            1 RES     
   22308 H6         746.6046  -599.9460  -493.7433 H6            1 RES     
   22309 H6         746.5757  -602.4004  -493.2848 H6            1 RES     
   22310 H6         746.3035  -601.9912  -495.0163 H6            1 RES     
   22311 H6         744.0966  -602.8068  -493.0166 H6            1 RES     
   22312 H6         743.8466  -602.3349  -494.7477 H6            1 RES     
   22313 H6         744.7988  -603.8086  -494.3291 H6            1 RES     
   22314 H6         740.5199  -597.5666  -488.3181 H6            1 RES     
   22315 H6         738.8982  -597.8856  -488.2286 H6            1 RES     
   22316 H6         740.0776  -595.7305  -487.1576 H6            1 RES     
   22317 H6         739.8021  -594.9583  -488.7493 H6            1 RES     
   22318 H6         737.7268  -596.2794  -486.8006 H6            1 RES     
   22319 H6         737.3044  -595.5149  -488.3483 H6            1 RES     
   22320 H6         738.0154  -593.3259  -487.6690 H6            1 RES     
   22321 H6         736.6677  -594.0917  -486.7457 H6            1 RES     
   22322 H6         738.0522  -594.6312  -484.8755 H6            1 RES     
   22323 H6         739.4805  -593.8113  -485.6280 H6            1 RES     
   22324 H6         738.2013  -591.6835  -485.8088 H6            1 RES     
   22325 H6         736.7125  -592.4516  -485.1608 H6            1 RES     
   22326 H6         737.8503  -591.0354  -483.5085 H6            1 RES     
   22327 H6         739.3222  -592.0762  -483.5748 H6            1 RES     
   22328 H6         737.9217  -594.0170  -482.7182 H6            1 RES     
   22329 H6         737.8258  -592.5992  -481.6189 H6            1 RES     
   22330 H6         736.4604  -592.9508  -482.7410 H6            1 RES     
   22331 C0         733.5159  -606.7045  -499.1579 C0            1 RES     
   22332 C1         733.4433  -605.2242  -498.7231 C1            1 RES     
   22333 C1         732.9615  -604.4195  -499.7057 C1            1 RES     
   22334 S2         732.9563  -602.7956  -499.2992 S2            1 RES     
   22335 C1         733.6515  -603.1056  -497.7788 C1            1 RES     
   22336 C1         733.8793  -604.4765  -497.6165 C1            1 RES     
   22337 C1         732.7041  -605.2038  -500.8508 C1            1 RES     
   22338 C1         733.0859  -606.4871  -500.6095 C1            1 RES     
   22339 C1         732.9946  -607.2874  -501.7420 C1            1 RES     
   22340 C1         732.4928  -606.5513  -502.8286 C1            1 RES     
   22341 S2         732.1828  -604.9358  -502.4074 S2            1 RES     
   22342 H3         734.3828  -604.8641  -496.7513 H3            1 RES     
   22343 H3         733.2771  -608.3326  -501.7800 H3            1 RES     
   22344 N4         730.9888  -607.5716  -506.1069 N4            1 RES     
   22345 C1         731.0953  -607.1668  -504.8073 C1            1 RES     
   22346 C1         732.3556  -607.0263  -504.2009 C1            1 RES     
   22347 C1         733.4898  -607.2898  -504.9709 C1            1 RES     
   22348 N4         734.7635  -607.1378  -504.5258 N4            1 RES     
   22349 S2         735.6514  -607.5247  -505.8652 S2            1 RES     
   22350 N4         734.5085  -607.8860  -507.0060 N4            1 RES     
   22351 C1         733.3531  -607.6897  -506.3239 C1            1 RES     
   22352 C1         732.0827  -607.8404  -506.8737 C1            1 RES     
   22353 H5         730.1929  -606.9612  -504.2381 H5            1 RES     
   22354 C0         732.5474  -607.7524  -498.5048 C0            1 RES     
   22355 C0         730.9951  -607.9546  -498.6818 C0            1 RES     
   22356 C0         730.6107  -609.0824  -497.6607 C0            1 RES     
   22357 C0         729.1493  -609.5477  -497.6607 C0            1 RES     
   22358 C0         728.8758  -610.6222  -496.5821 C0            1 RES     
   22359 C0         729.6517  -611.9482  -496.7415 C0            1 RES     
   22360 C0         729.4773  -612.6411  -498.1045 C0            1 RES     
   22361 C0         728.0075  -612.9506  -498.4400 C0            1 RES     
   22362 C0         727.8312  -613.5909  -499.8243 C0            1 RES     
   22363 C0         728.4349  -615.0023  -499.9201 C0            1 RES     
   22364 C0         728.1528  -615.6780  -501.2715 C0            1 RES     
   22365 C0         728.8336  -614.9786  -502.4485 C0            1 RES     
   22366 C0         730.0389  -606.7214  -498.5817 C0            1 RES     
   22367 C0         729.9139  -605.9616  -497.2253 C0            1 RES     
   22368 C0         730.3213  -604.5002  -497.4362 C0            1 RES     
   22369 C0         730.5919  -603.6463  -496.2007 C0            1 RES     
   22370 C0         729.3716  -603.0916  -495.4806 C0            1 RES     
   22371 C0         729.8726  -602.2282  -494.3038 C0            1 RES     
   22372 C0         728.7731  -601.4397  -493.5886 C0            1 RES     
   22373 C0         728.1878  -600.3323  -494.4675 C0            1 RES     
   22374 H6         732.6766  -607.6637  -497.4564 H6            1 RES     
   22375 H6         732.9666  -608.7380  -498.8093 H6            1 RES     
   22376 H6         730.8414  -608.3450  -499.7126 H6            1 RES     
   22377 H6         730.8448  -608.7385  -496.6295 H6            1 RES     
   22378 H6         731.2519  -609.9645  -497.8736 H6            1 RES     
   22379 H6         728.8683  -609.9219  -498.6661 H6            1 RES     
   22380 H6         728.4930  -608.6892  -497.4125 H6            1 RES     
   22381 H6         727.7880  -610.8414  -496.5817 H6            1 RES     
   22382 H6         729.1127  -610.2037  -495.5788 H6            1 RES     
   22383 H6         729.3177  -612.6418  -495.9379 H6            1 RES     
   22384 H6         730.7363  -611.7691  -496.5806 H6            1 RES     
   22385 H6         729.9098  -611.9982  -498.9000 H6            1 RES     
   22386 H6         730.0645  -613.5823  -498.0734 H6            1 RES     
   22387 H6         727.4379  -611.9994  -498.4647 H6            1 RES     
   22388 H6         727.5626  -613.6043  -497.6579 H6            1 RES     
   22389 H6         726.7397  -613.6676  -500.0216 H6            1 RES     
   22390 H6         728.2758  -612.9157  -500.5853 H6            1 RES     
   22391 H6         729.5320  -614.9775  -499.7549 H6            1 RES     
   22392 H6         727.9745  -615.6294  -499.1258 H6            1 RES     
   22393 H6         727.0560  -615.7241  -501.4484 H6            1 RES     
   22394 H6         728.5387  -616.7192  -501.2241 H6            1 RES     
   22395 H6         728.4505  -613.9469  -502.5826 H6            1 RES     
   22396 H6         729.9327  -614.9462  -502.2910 H6            1 RES     
   22397 H6         728.6251  -615.5428  -503.3816 H6            1 RES     
   22398 H6         729.0173  -607.0663  -498.8499 H6            1 RES     
   22399 H6         730.2822  -606.0251  -499.4126 H6            1 RES     
   22400 H6         728.8634  -605.9798  -496.8577 H6            1 RES     
   22401 H6         730.5564  -606.4412  -496.4592 H6            1 RES     
   22402 H6         729.6567  -603.9770  -498.1555 H6            1 RES     
   22403 H6         731.2863  -604.5782  -497.8900 H6            1 RES     
   22404 H6         731.2336  -604.2041  -495.5143 H6            1 RES     
   22405 H6         731.1755  -602.7647  -496.5513 H6            1 RES     
   22406 H6         728.8104  -602.4742  -496.2136 H6            1 RES     
   22407 H6         728.7144  -603.9058  -495.1086 H6            1 RES     
   22408 H6         730.3667  -602.9032  -493.5686 H6            1 RES     
   22409 H6         730.6368  -601.4977  -494.6544 H6            1 RES     
   22410 H6         729.2313  -600.9506  -492.7009 H6            1 RES     
   22411 H6         727.9730  -602.1252  -493.2384 H6            1 RES     
   22412 H6         727.6762  -600.7477  -495.3579 H6            1 RES     
   22413 H6         727.4480  -599.7481  -493.8835 H6            1 RES     
   22414 H6         728.9947  -599.6422  -494.8012 H6            1 RES     
   22415 C0         735.0337  -607.1090  -498.9895 C0            1 RES     
   22416 C0         735.6068  -608.1455  -497.9203 C0            1 RES     
   22417 C0         737.1285  -607.8146  -497.7551 C0            1 RES     
   22418 C0         737.9554  -608.8542  -496.9718 C0            1 RES     
   22419 C0         739.4389  -608.4771  -496.8135 C0            1 RES     
   22420 C0         740.2275  -608.3012  -498.1235 C0            1 RES     
   22421 C0         740.1606  -609.4939  -499.0918 C0            1 RES     
   22422 C0         740.6506  -610.8143  -498.4717 C0            1 RES     
   22423 C0         740.5726  -611.9971  -499.4506 C0            1 RES     
   22424 C0         741.5455  -611.8593  -500.6353 C0            1 RES     
   22425 C0         741.5600  -613.0961  -501.5470 C0            1 RES     
   22426 C0         740.2348  -613.3256  -502.2738 C0            1 RES     
   22427 C0         734.9388  -608.4830  -496.5214 C0            1 RES     
   22428 C0         734.8719  -607.4416  -495.3685 C0            1 RES     
   22429 C0         733.4526  -606.8812  -495.1666 C0            1 RES     
   22430 C0         733.2893  -605.8068  -494.1043 C0            1 RES     
   22431 C0         733.3711  -606.2540  -492.6515 C0            1 RES     
   22432 C0         733.0040  -605.0341  -491.7820 C0            1 RES     
   22433 C0         732.8826  -605.3339  -490.2868 C0            1 RES     
   22434 C0         731.6887  -606.2360  -489.9705 C0            1 RES     
   22435 H6         735.6338  -606.1710  -498.9332 H6            1 RES     
   22436 H6         735.3784  -607.5104  -499.9694 H6            1 RES     
   22437 H6         735.5371  -609.1273  -498.4432 H6            1 RES     
   22438 H6         737.2331  -606.8287  -497.2528 H6            1 RES     
   22439 H6         737.5691  -607.7285  -498.7717 H6            1 RES     
   22440 H6         737.8613  -609.8447  -497.4643 H6            1 RES     
   22441 H6         737.5803  -608.9411  -495.9337 H6            1 RES     
   22442 H6         739.9254  -609.2684  -496.2040 H6            1 RES     
   22443 H6         739.5160  -607.5318  -496.2326 H6            1 RES     
   22444 H6         741.2895  -608.1060  -497.8577 H6            1 RES     
   22445 H6         739.8540  -607.4019  -498.6581 H6            1 RES     
   22446 H6         739.1170  -609.6233  -499.4503 H6            1 RES     
   22447 H6         740.7888  -609.2290  -499.9666 H6            1 RES     
   22448 H6         739.9996  -611.0694  -497.6096 H6            1 RES     
   22449 H6         741.6921  -610.7023  -498.1000 H6            1 RES     
   22450 H6         740.8405  -612.9177  -498.8876 H6            1 RES     
   22451 H6         739.5253  -612.0994  -499.8063 H6            1 RES     
   22452 H6         741.3005  -610.9689  -501.2502 H6            1 RES     
   22453 H6         742.5714  -611.7306  -500.2262 H6            1 RES     
   22454 H6         741.8219  -613.9988  -500.9534 H6            1 RES     
   22455 H6         742.3489  -612.9468  -502.3155 H6            1 RES     
   22456 H6         739.4135  -613.5344  -501.5590 H6            1 RES     
   22457 H6         739.9740  -612.4365  -502.8866 H6            1 RES     
   22458 H6         740.3333  -614.2032  -502.9468 H6            1 RES     
   22459 H6         735.5378  -609.3218  -496.1219 H6            1 RES     
   22460 H6         733.9844  -609.0342  -496.6153 H6            1 RES     
   22461 H6         735.0944  -607.9748  -494.4180 H6            1 RES     
   22462 H6         735.6441  -606.6565  -495.4977 H6            1 RES     
   22463 H6         732.7341  -607.7113  -494.9789 H6            1 RES     
   22464 H6         733.1337  -606.3610  -496.0629 H6            1 RES     
   22465 H6         733.9869  -604.9653  -494.3071 H6            1 RES     
   22466 H6         732.2518  -605.4523  -494.2202 H6            1 RES     
   22467 H6         732.6344  -607.0723  -492.5070 H6            1 RES     
   22468 H6         734.3864  -606.6271  -492.4027 H6            1 RES     
   22469 H6         733.7868  -604.2578  -491.9298 H6            1 RES     
   22470 H6         732.0333  -604.6000  -492.1155 H6            1 RES     
   22471 H6         732.7145  -604.3647  -489.7680 H6            1 RES     
   22472 H6         733.8239  -605.7801  -489.9092 H6            1 RES     
   22473 H6         731.8075  -607.2397  -490.4246 H6            1 RES     
   22474 H6         731.6047  -606.3600  -488.8713 H6            1 RES     
   22475 H6         730.7482  -605.7755  -490.3450 H6            1 RES     
   22476 C0         731.5140  -610.9016  -511.3328 C0            1 RES     
   22477 C1         731.6065  -609.7466  -510.3114 C1            1 RES     
   22478 C1         731.7403  -608.5352  -510.9113 C1            1 RES     
   22479 S2         731.9358  -607.2710  -509.8315 S2            1 RES     
   22480 C1         731.8913  -608.3192  -508.4935 C1            1 RES     
   22481 C1         731.7272  -609.6431  -508.9156 C1            1 RES     
   22482 C1         731.7860  -608.7225  -512.3097 C1            1 RES     
   22483 C1         731.7479  -610.0544  -512.5844 C1            1 RES     
   22484 C1         731.9334  -610.3207  -513.9357 C1            1 RES     
   22485 C1         732.0749  -609.1253  -514.6606 C1            1 RES     
   22486 S2         731.9908  -607.7618  -513.6520 S2            1 RES     
   22487 H3         731.7514  -610.4615  -508.2214 H3            1 RES     
   22488 H3         731.9689  -611.3140  -514.3669 H3            1 RES     
   22489 N4         731.7925  -608.3222  -518.3110 N4            1 RES     
   22490 C1         731.4673  -608.4609  -516.9922 C1            1 RES     
   22491 C1         732.3856  -609.0109  -516.0811 C1            1 RES     
   22492 C1         733.6419  -609.3878  -516.5591 C1            1 RES     
   22493 N4         734.6380  -609.8770  -515.7768 N4            1 RES     
   22494 S2         735.8704  -610.0734  -516.8605 S2            1 RES     
   22495 N4         735.2177  -609.5723  -518.2962 N4            1 RES     
   22496 C1         733.9621  -609.2154  -517.9291 C1            1 RES     
   22497 C1         733.0104  -608.6900  -518.7991 C1            1 RES     
   22498 H5         730.4839  -608.1494  -516.6507 H5            1 RES     
   22499 C0         730.1610  -611.6779  -511.5042 C0            1 RES     
   22500 C0         728.7998  -611.2226  -512.1538 C0            1 RES     
   22501 C0         727.8061  -612.4091  -511.8946 C0            1 RES     
   22502 C0         726.3984  -612.2756  -512.4885 C0            1 RES     
   22503 C0         725.4929  -613.4766  -512.1270 C0            1 RES     
   22504 C0         725.9544  -614.8512  -512.6593 C0            1 RES     
   22505 C0         726.1800  -614.9145  -514.1802 C0            1 RES     
   22506 C0         724.9309  -614.5275  -514.9918 C0            1 RES     
   22507 C0         725.1749  -614.5374  -516.5077 C0            1 RES     
   22508 C0         725.4387  -615.9446  -517.0695 C0            1 RES     
   22509 C0         725.5674  -615.9578  -518.6010 C0            1 RES     
   22510 C0         726.7920  -615.1960  -519.1092 C0            1 RES     
   22511 C0         728.1801  -609.8416  -511.7615 C0            1 RES     
   22512 C0         727.7047  -609.6085  -510.2944 C0            1 RES     
   22513 C0         728.4748  -608.4224  -509.7061 C0            1 RES     
   22514 C0         728.4209  -608.2110  -508.1957 C0            1 RES     
   22515 C0         727.1718  -607.5338  -507.6511 C0            1 RES     
   22516 C0         727.3486  -607.3784  -506.1260 C0            1 RES     
   22517 C0         726.2612  -606.5417  -505.4481 C0            1 RES     
   22518 C0         726.3288  -605.0668  -505.8498 C0            1 RES     
   22519 H6         729.8846  -612.0110  -510.5366 H6            1 RES     
   22520 H6         730.4363  -612.5775  -512.0997 H6            1 RES     
   22521 H6         728.9805  -611.1472  -513.2494 H6            1 RES     
   22522 H6         727.6867  -612.5543  -510.7986 H6            1 RES     
   22523 H6         728.2667  -613.3324  -512.3069 H6            1 RES     
   22524 H6         726.4592  -612.1483  -513.5884 H6            1 RES     
   22525 H6         725.9053  -611.3794  -512.0607 H6            1 RES     
   22526 H6         724.4732  -613.2676  -512.5113 H6            1 RES     
   22527 H6         725.4035  -613.5487  -511.0204 H6            1 RES     
   22528 H6         725.1873  -615.6058  -512.3757 H6            1 RES     
   22529 H6         726.8992  -615.1494  -512.1565 H6            1 RES     
   22530 H6         727.0207  -614.2427  -514.4539 H6            1 RES     
   22531 H6         726.4835  -615.9535  -514.4255 H6            1 RES     
   22532 H6         724.6429  -613.4885  -514.7320 H6            1 RES     
   22533 H6         724.0821  -615.1995  -514.7377 H6            1 RES     
   22534 H6         724.2609  -614.1355  -516.9969 H6            1 RES     
   22535 H6         726.0199  -613.8538  -516.7342 H6            1 RES     
   22536 H6         726.3588  -616.3823  -516.6297 H6            1 RES     
   22537 H6         724.5771  -616.5923  -516.7969 H6            1 RES     
   22538 H6         724.6475  -615.5346  -519.0604 H6            1 RES     
   22539 H6         725.6627  -617.0149  -518.9304 H6            1 RES     
   22540 H6         726.7312  -614.1181  -518.8573 H6            1 RES     
   22541 H6         727.7185  -615.6252  -518.6720 H6            1 RES     
   22542 H6         726.8469  -615.2844  -520.2145 H6            1 RES     
   22543 H6         727.2970  -609.6725  -512.4141 H6            1 RES     
   22544 H6         728.8776  -609.0419  -512.0908 H6            1 RES     
   22545 H6         726.6186  -609.3665  -510.2649 H6            1 RES     
   22546 H6         727.8714  -610.5231  -509.6899 H6            1 RES     
   22547 H6         728.2797  -607.4782  -510.2568 H6            1 RES     
   22548 H6         729.4971  -608.6863  -509.8750 H6            1 RES     
   22549 H6         728.6008  -609.1653  -507.6947 H6            1 RES     
   22550 H6         729.2747  -607.5421  -507.9426 H6            1 RES     
   22551 H6         727.0953  -606.5414  -508.1438 H6            1 RES     
   22552 H6         726.2588  -608.1250  -507.8749 H6            1 RES     
   22553 H6         727.3517  -608.3967  -505.6751 H6            1 RES     
   22554 H6         728.3302  -606.9060  -505.8939 H6            1 RES     
   22555 H6         726.4302  -606.5940  -504.3500 H6            1 RES     
   22556 H6         725.2576  -606.9618  -505.6697 H6            1 RES     
   22557 H6         726.1295  -604.9303  -506.9309 H6            1 RES     
   22558 H6         725.5686  -604.4930  -505.2818 H6            1 RES     
   22559 H6         727.3330  -604.6508  -505.6103 H6            1 RES     
   22560 C0         732.7133  -611.8653  -510.9740 C0            1 RES     
   22561 C0         732.5757  -613.3404  -510.3813 C0            1 RES     
   22562 C0         733.9427  -613.6691  -509.6915 C0            1 RES     
   22563 C0         734.1431  -615.1409  -509.2773 C0            1 RES     
   22564 C0         735.4889  -615.4134  -508.5826 C0            1 RES     
   22565 C0         736.7459  -615.0974  -509.4127 C0            1 RES     
   22566 C0         736.8019  -615.7684  -510.7952 C0            1 RES     
   22567 C0         736.7035  -617.3030  -510.7354 C0            1 RES     
   22568 C0         736.7558  -617.9577  -512.1253 C0            1 RES     
   22569 C0         738.1198  -617.7855  -512.8175 C0            1 RES     
   22570 C0         738.2165  -618.5439  -514.1504 C0            1 RES     
   22571 C0         737.2678  -618.0054  -515.2213 C0            1 RES     
   22572 C0         731.3557  -613.8708  -509.5168 C0            1 RES     
   22573 C0         731.0743  -613.3454  -508.0806 C0            1 RES     
   22574 C0         729.8522  -612.4111  -508.0274 C0            1 RES     
   22575 C0         729.5276  -611.7904  -506.6786 C0            1 RES     
   22576 C0         728.9316  -612.7090  -505.6212 C0            1 RES     
   22577 C0         728.5330  -611.8214  -504.4245 C0            1 RES     
   22578 C0         727.7715  -612.5529  -503.3176 C0            1 RES     
   22579 C0         726.3817  -613.0041  -503.7693 C0            1 RES     
   22580 H6         733.4347  -611.2944  -510.3443 H6            1 RES     
   22581 H6         733.3165  -611.9995  -511.9004 H6            1 RES     
   22582 H6         732.5011  -613.9821  -511.2894 H6            1 RES     
   22583 H6         734.0574  -613.0294  -508.7899 H6            1 RES     
   22584 H6         734.7539  -613.4047  -510.4035 H6            1 RES     
   22585 H6         734.0329  -615.7918  -510.1699 H6            1 RES     
   22586 H6         733.3817  -615.4375  -508.5302 H6            1 RES     
   22587 H6         735.5088  -616.4859  -508.2934 H6            1 RES     
   22588 H6         735.5393  -614.8259  -507.6395 H6            1 RES     
   22589 H6         737.6330  -615.4098  -508.8192 H6            1 RES     
   22590 H6         736.8215  -613.9989  -509.5595 H6            1 RES     
   22591 H6         735.9823  -615.3740  -511.4331 H6            1 RES     
   22592 H6         737.7647  -615.4672  -511.2561 H6            1 RES     
   22593 H6         735.7276  -617.5829  -510.2867 H6            1 RES     
   22594 H6         737.5122  -617.7163  -510.0947 H6            1 RES     
   22595 H6         736.5702  -619.0457  -511.9917 H6            1 RES     
   22596 H6         735.9379  -617.5394  -512.7496 H6            1 RES     
   22597 H6         738.3396  -616.7139  -513.0031 H6            1 RES     
   22598 H6         738.9036  -618.1916  -512.1415 H6            1 RES     
   22599 H6         738.0173  -619.6249  -513.9841 H6            1 RES     
   22600 H6         739.2553  -618.4383  -514.5309 H6            1 RES     
   22601 H6         736.2078  -618.1320  -514.9220 H6            1 RES     
   22602 H6         737.4724  -616.9300  -515.4099 H6            1 RES     
   22603 H6         737.4253  -618.5669  -516.1661 H6            1 RES     
   22604 H6         731.5478  -614.9530  -509.3987 H6            1 RES     
   22605 H6         730.4184  -613.9648  -510.0967 H6            1 RES     
   22606 H6         730.7819  -614.2161  -507.4533 H6            1 RES     
   22607 H6         731.9883  -612.9054  -507.6329 H6            1 RES     
   22608 H6         728.9533  -612.9298  -508.4313 H6            1 RES     
   22609 H6         730.0345  -611.5350  -508.6396 H6            1 RES     
   22610 H6         730.4164  -611.2490  -506.2877 H6            1 RES     
   22611 H6         728.7254  -611.0641  -506.8892 H6            1 RES     
   22612 H6         728.0359  -613.1960  -506.0615 H6            1 RES     
   22613 H6         729.6577  -613.4893  -505.3115 H6            1 RES     
   22614 H6         729.4617  -611.3865  -503.9939 H6            1 RES     
   22615 H6         727.8934  -610.9754  -504.7670 H6            1 RES     
   22616 H6         727.6325  -611.8334  -502.4810 H6            1 RES     
   22617 H6         728.3648  -613.4138  -502.9507 H6            1 RES     
   22618 H6         726.4435  -613.7577  -504.5793 H6            1 RES     
   22619 H6         725.8479  -613.4605  -502.9106 H6            1 RES     
   22620 H6         725.7910  -612.1323  -504.1269 H6            1 RES     
   22621 C0         733.5741  -609.5843  -524.1340 C0            1 RES     
   22622 C1         733.5118  -608.9736  -522.7166 C1            1 RES     
   22623 C1         734.1350  -607.7687  -522.6448 C1            1 RES     
   22624 S2         734.1660  -607.1217  -521.1012 S2            1 RES     
   22625 C1         733.3690  -608.4734  -520.4467 C1            1 RES     
   22626 C1         733.0948  -609.4110  -521.4484 C1            1 RES     
   22627 C1         734.6830  -607.4638  -523.9095 C1            1 RES     
   22628 C1         734.4617  -608.5054  -524.7562 C1            1 RES     
   22629 C1         735.0985  -608.3361  -525.9797 C1            1 RES     
   22630 C1         735.7741  -607.1048  -526.0196 C1            1 RES     
   22631 S2         735.6054  -606.2448  -524.5652 S2            1 RES     
   22632 H3         732.6626  -610.3669  -521.2206 H3            1 RES     
   22633 H3         735.0793  -609.0582  -526.7873 H3            1 RES     
   22634 N4         737.1323  -605.0454  -528.8418 N4            1 RES     
   22635 C1         736.2938  -605.5020  -527.8658 C1            1 RES     
   22636 C1         736.6342  -606.6286  -527.0972 C1            1 RES     
   22637 C1         737.8598  -607.2491  -527.3454 C1            1 RES     
   22638 N4         738.3337  -608.3071  -526.6387 N4            1 RES     
   22639 S2         739.8156  -608.5536  -527.3279 S2            1 RES     
   22640 N4         739.9073  -607.3853  -528.4962 N4            1 RES     
   22641 C1         738.7214  -606.7438  -528.3512 C1            1 RES     
   22642 C1         738.3295  -605.6405  -529.1047 C1            1 RES     
   22643 H5         735.3509  -604.9908  -527.6918 H5            1 RES     
   22644 C0         732.2615  -609.6999  -524.9863 C0            1 RES     
   22645 C0         731.4021  -608.5834  -525.6911 C0            1 RES     
   22646 C0         730.1504  -609.3339  -526.2676 C0            1 RES     
   22647 C0         729.1563  -608.4975  -527.0827 C0            1 RES     
   22648 C0         727.9401  -609.3282  -527.5555 C0            1 RES     
   22649 C0         728.2564  -610.5007  -528.5100 C0            1 RES     
   22650 C0         729.0405  -610.1122  -529.7759 C0            1 RES     
   22651 C0         728.3296  -609.0397  -530.6202 C0            1 RES     
   22652 C0         729.1400  -608.6134  -531.8527 C0            1 RES     
   22653 C0         729.2842  -609.7315  -532.8990 C0            1 RES     
   22654 C0         729.9971  -609.2605  -534.1766 C0            1 RES     
   22655 C0         731.4585  -608.8753  -533.9439 C0            1 RES     
   22656 C0         731.0009  -607.2990  -524.8945 C0            1 RES     
   22657 C0         730.0525  -607.4307  -523.6633 C0            1 RES     
   22658 C0         730.7720  -606.8916  -522.4232 C0            1 RES     
   22659 C0         730.1780  -607.2115  -521.0543 C0            1 RES     
   22660 C0         728.9993  -606.3572  -520.6114 C0            1 RES     
   22661 C0         728.5931  -606.8150  -519.1948 C0            1 RES     
   22662 C0         727.5417  -605.9282  -518.5238 C0            1 RES     
   22663 C0         728.0865  -604.5400  -518.1811 C0            1 RES     
   22664 H6         731.5613  -610.2210  -524.3847 H6            1 RES     
   22665 H6         732.5416  -610.3720  -525.8286 H6            1 RES     
   22666 H6         732.0100  -608.2056  -526.5433 H6            1 RES     
   22667 H6         729.5816  -609.7945  -525.4305 H6            1 RES     
   22668 H6         730.5188  -610.1577  -526.9159 H6            1 RES     
   22669 H6         729.6704  -608.0295  -527.9467 H6            1 RES     
   22670 H6         728.7469  -607.6906  -526.4420 H6            1 RES     
   22671 H6         727.2268  -608.6412  -528.0560 H6            1 RES     
   22672 H6         727.4100  -609.7404  -526.6684 H6            1 RES     
   22673 H6         727.2930  -610.9696  -528.8110 H6            1 RES     
   22674 H6         728.8364  -611.2783  -527.9686 H6            1 RES     
   22675 H6         730.0472  -609.7452  -529.4846 H6            1 RES     
   22676 H6         729.1775  -611.0361  -530.3753 H6            1 RES     
   22677 H6         728.2007  -608.1264  -530.0043 H6            1 RES     
   22678 H6         727.3232  -609.3971  -530.9303 H6            1 RES     
   22679 H6         728.6050  -607.7622  -532.3276 H6            1 RES     
   22680 H6         730.1347  -608.2542  -531.5148 H6            1 RES     
   22681 H6         729.8360  -610.5987  -532.4808 H6            1 RES     
   22682 H6         728.2646  -610.0696  -533.1858 H6            1 RES     
   22683 H6         729.4499  -608.3990  -534.6180 H6            1 RES     
   22684 H6         729.9772  -610.0947  -534.9107 H6            1 RES     
   22685 H6         731.5441  -608.0090  -533.2574 H6            1 RES     
   22686 H6         732.0190  -609.7367  -533.5223 H6            1 RES     
   22687 H6         731.9216  -608.5896  -534.9115 H6            1 RES     
   22688 H6         730.5060  -606.6038  -525.6059 H6            1 RES     
   22689 H6         731.9300  -606.7499  -524.6303 H6            1 RES     
   22690 H6         729.1249  -606.8339  -523.8135 H6            1 RES     
   22691 H6         729.7615  -608.4909  -523.5180 H6            1 RES     
   22692 H6         731.0231  -605.8141  -522.5166 H6            1 RES     
   22693 H6         731.6924  -607.4358  -522.4183 H6            1 RES     
   22694 H6         729.9306  -608.2750  -521.0118 H6            1 RES     
   22695 H6         730.9891  -607.0340  -520.3119 H6            1 RES     
   22696 H6         729.3441  -605.3015  -520.6025 H6            1 RES     
   22697 H6         728.1410  -606.4560  -521.3091 H6            1 RES     
   22698 H6         728.1933  -607.8517  -519.2704 H6            1 RES     
   22699 H6         729.4830  -606.8469  -518.5258 H6            1 RES     
   22700 H6         727.2502  -606.4150  -517.5671 H6            1 RES     
   22701 H6         726.6396  -605.8469  -519.1660 H6            1 RES     
   22702 H6         728.3630  -603.9753  -519.0932 H6            1 RES     
   22703 H6         727.3121  -603.9623  -517.6369 H6            1 RES     
   22704 H6         728.9811  -604.6314  -517.5254 H6            1 RES     
   22705 C0         734.2904  -610.9802  -523.9495 C0            1 RES     
   22706 C0         733.6082  -612.4090  -524.1478 C0            1 RES     
   22707 C0         734.4851  -613.4322  -523.3500 C0            1 RES     
   22708 C0         734.1754  -614.9203  -523.6102 C0            1 RES     
   22709 C0         735.0439  -615.8890  -522.7882 C0            1 RES     
   22710 C0         736.5617  -615.7895  -523.0230 C0            1 RES     
   22711 C0         737.0055  -615.9117  -524.4903 C0            1 RES     
   22712 C0         736.5542  -617.2219  -525.1595 C0            1 RES     
   22713 C0         737.0012  -617.3261  -526.6266 C0            1 RES     
   22714 C0         738.5286  -617.4376  -526.7808 C0            1 RES     
   22715 C0         738.9699  -617.6674  -528.2346 C0            1 RES     
   22716 C0         738.6625  -616.4844  -529.1527 C0            1 RES     
   22717 C0         732.0624  -612.7192  -523.9710 C0            1 RES     
   22718 C0         731.3641  -612.6587  -522.5830 C0            1 RES     
   22719 C0         730.4591  -611.4223  -522.4355 C0            1 RES     
   22720 C0         729.7777  -611.2336  -521.0903 C0            1 RES     
   22721 C0         728.6272  -612.1744  -520.7610 C0            1 RES     
   22722 C0         727.9984  -611.6753  -519.4439 C0            1 RES     
   22723 C0         726.7222  -612.4110  -519.0312 C0            1 RES     
   22724 C0         725.5588  -612.1354  -519.9849 C0            1 RES     
   22725 H6         734.8139  -610.9691  -522.9652 H6            1 RES     
   22726 H6         735.1627  -610.9969  -524.6416 H6            1 RES     
   22727 H6         733.7558  -612.6221  -525.2317 H6            1 RES     
   22728 H6         734.3754  -613.2334  -522.2620 H6            1 RES     
   22729 H6         735.5472  -613.2549  -523.6243 H6            1 RES     
   22730 H6         734.2831  -615.1336  -524.6944 H6            1 RES     
   22731 H6         733.1368  -615.1559  -523.3073 H6            1 RES     
   22732 H6         734.7105  -616.9227  -523.0218 H6            1 RES     
   22733 H6         734.8490  -615.7260  -521.7054 H6            1 RES     
   22734 H6         737.0515  -616.5895  -522.4258 H6            1 RES     
   22735 H6         736.9302  -614.8175  -522.6313 H6            1 RES     
   22736 H6         736.6115  -615.0501  -525.0706 H6            1 RES     
   22737 H6         738.1126  -615.8448  -524.4944 H6            1 RES     
   22738 H6         735.4449  -617.2613  -525.1597 H6            1 RES     
   22739 H6         736.9332  -618.0968  -524.5882 H6            1 RES     
   22740 H6         736.5420  -618.2441  -527.0536 H6            1 RES     
   22741 H6         736.6087  -616.4492  -527.1840 H6            1 RES     
   22742 H6         739.0351  -616.5284  -526.3966 H6            1 RES     
   22743 H6         738.8731  -618.3094  -526.1827 H6            1 RES     
   22744 H6         738.4874  -618.5858  -528.6342 H6            1 RES     
   22745 H6         740.0700  -617.8252  -528.2386 H6            1 RES     
   22746 H6         737.5708  -616.3089  -529.2330 H6            1 RES     
   22747 H6         739.1574  -615.5651  -528.7732 H6            1 RES     
   22748 H6         739.0495  -616.7005  -530.1707 H6            1 RES     
   22749 H6         731.9477  -613.7653  -524.3095 H6            1 RES     
   22750 H6         731.4323  -612.2565  -524.7537 H6            1 RES     
   22751 H6         730.6639  -613.5207  -522.5190 H6            1 RES     
   22752 H6         732.1018  -612.7683  -521.7625 H6            1 RES     
   22753 H6         729.7002  -611.4014  -523.2504 H6            1 RES     
   22754 H6         731.0562  -610.5206  -522.5132 H6            1 RES     
   22755 H6         730.5377  -611.2266  -520.2790 H6            1 RES     
   22756 H6         729.3051  -610.2394  -521.1516 H6            1 RES     
   22757 H6         727.8924  -612.1147  -521.5915 H6            1 RES     
   22758 H6         728.9810  -613.2215  -520.6595 H6            1 RES     
   22759 H6         728.7549  -611.7888  -518.6365 H6            1 RES     
   22760 H6         727.7493  -610.5918  -519.5210 H6            1 RES     
   22761 H6         726.4293  -612.0278  -518.0290 H6            1 RES     
   22762 H6         726.9172  -613.4989  -518.9522 H6            1 RES     
   22763 H6         725.7648  -612.5290  -521.0000 H6            1 RES     
   22764 H6         724.6442  -612.6310  -519.5996 H6            1 RES     
   22765 H6         725.3650  -611.0422  -520.0503 H6            1 RES     
   22766 C0         740.7279  -604.7750  -533.9086 C0            1 RES     
   22767 C1         740.2515  -604.7146  -532.4405 C1            1 RES     
   22768 C1         741.0466  -603.9270  -531.6707 C1            1 RES     
   22769 S2         740.6119  -603.9131  -530.0542 S2            1 RES     
   22770 C1         739.3441  -605.0151  -530.3170 C1            1 RES     
   22771 C1         739.2847  -605.3783  -531.6669 C1            1 RES     
   22772 C1         742.0996  -603.4271  -532.4669 C1            1 RES     
   22773 C1         742.0035  -603.9530  -533.7179 C1            1 RES     
   22774 C1         743.0896  -603.6170  -534.5172 C1            1 RES     
   22775 C1         743.9811  -602.7871  -533.8168 C1            1 RES     
   22776 S2         743.4504  -602.4852  -532.2324 S2            1 RES     
   22777 H3         738.5977  -606.1244  -532.0185 H3            1 RES     
   22778 H3         743.2294  -603.9545  -535.5372 H3            1 RES     
   22779 N4         746.7572  -600.5299  -534.9343 N4            1 RES     
   22780 C1         745.5246  -600.9546  -534.5289 C1            1 RES     
   22781 C1         745.2773  -602.3182  -534.2942 C1            1 RES     
   22782 C1         746.3313  -603.2175  -534.4650 C1            1 RES     
   22783 N4         746.2427  -604.5494  -534.2170 N4            1 RES     
   22784 S2         747.7814  -605.0670  -534.5272 S2            1 RES     
   22785 N4         748.5805  -603.6873  -534.9703 N4            1 RES     
   22786 C1         747.6071  -602.7489  -534.8676 C1            1 RES     
   22787 C1         747.7974  -601.3917  -535.1135 C1            1 RES     
   22788 H5         744.7278  -600.2277  -534.3967 H5            1 RES     
   22789 C0         739.8649  -604.0993  -535.0317 C0            1 RES     
   22790 C0         739.6217  -602.5762  -535.3528 C0            1 RES     
   22791 C0         738.5642  -602.5667  -536.5121 C0            1 RES     
   22792 C0         738.1819  -601.1981  -537.0892 C0            1 RES     
   22793 C0         737.0976  -601.3067  -538.1871 C0            1 RES     
   22794 C0         737.4947  -602.1054  -539.4482 C0            1 RES     
   22795 C0         738.7775  -601.6194  -540.1456 C0            1 RES     
   22796 C0         738.7118  -600.1405  -540.5666 C0            1 RES     
   22797 C0         740.0133  -599.6430  -541.2116 C0            1 RES     
   22798 C0         740.3048  -600.2999  -542.5714 C0            1 RES     
   22799 C0         741.5469  -599.7124  -543.2603 C0            1 RES     
   22800 C0         742.8455  -599.9956  -542.5043 C0            1 RES     
   22801 C0         739.2355  -601.5952  -534.1980 C0            1 RES     
   22802 C0         737.8765  -601.7872  -533.4569 C0            1 RES     
   22803 C0         738.1517  -602.0139  -531.9673 C0            1 RES     
   22804 C0         737.0135  -602.5459  -531.1011 C0            1 RES     
   22805 C0         735.9767  -601.5292  -530.6464 C0            1 RES     
   22806 C0         734.9568  -602.2657  -529.7526 C0            1 RES     
   22807 C0         733.9514  -601.3465  -529.0553 C0            1 RES     
   22808 C0         734.6108  -600.4653  -527.9923 C0            1 RES     
   22809 H6         738.8883  -604.5009  -534.9384 H6            1 RES     
   22810 H6         740.2966  -604.4913  -535.9802 H6            1 RES     
   22811 H6         740.5825  -602.1779  -535.7488 H6            1 RES     
   22812 H6         737.6259  -603.0456  -536.1562 H6            1 RES     
   22813 H6         738.9649  -603.1891  -537.3407 H6            1 RES     
   22814 H6         739.0835  -600.6834  -537.4791 H6            1 RES     
   22815 H6         737.7437  -600.5726  -536.2855 H6            1 RES     
   22816 H6         736.8094  -600.2789  -538.4901 H6            1 RES     
   22817 H6         736.1850  -601.7753  -537.7565 H6            1 RES     
   22818 H6         736.6489  -602.0535  -540.1696 H6            1 RES     
   22819 H6         737.6278  -603.1768  -539.1863 H6            1 RES     
   22820 H6         739.6433  -601.7718  -539.4672 H6            1 RES     
   22821 H6         738.9303  -602.2604  -541.0386 H6            1 RES     
   22822 H6         738.5574  -599.5173  -539.6622 H6            1 RES     
   22823 H6         737.8558  -599.9733  -541.2566 H6            1 RES     
   22824 H6         739.9106  -598.5475  -541.3717 H6            1 RES     
   22825 H6         740.8483  -599.8140  -540.5002 H6            1 RES     
   22826 H6         740.4412  -601.3958  -542.4625 H6            1 RES     
   22827 H6         739.4322  -600.1193  -543.2363 H6            1 RES     
   22828 H6         741.4224  -598.6152  -543.3903 H6            1 RES     
   22829 H6         741.6323  -600.1720  -544.2686 H6            1 RES     
   22830 H6         742.8446  -599.5160  -541.5047 H6            1 RES     
   22831 H6         742.9896  -601.0908  -542.3875 H6            1 RES     
   22832 H6         743.7020  -599.5840  -543.0783 H6            1 RES     
   22833 H6         739.2269  -600.5673  -534.6196 H6            1 RES     
   22834 H6         740.0829  -601.5525  -533.4807 H6            1 RES     
   22835 H6         737.2397  -600.8799  -533.5584 H6            1 RES     
   22836 H6         737.3249  -602.6466  -533.8891 H6            1 RES     
   22837 H6         738.6512  -601.1427  -531.4936 H6            1 RES     
   22838 H6         738.8509  -602.8228  -531.9679 H6            1 RES     
   22839 H6         736.5403  -603.3886  -531.6110 H6            1 RES     
   22840 H6         737.4856  -602.9464  -530.1752 H6            1 RES     
   22841 H6         736.5149  -600.7467  -530.0706 H6            1 RES     
   22842 H6         735.4624  -601.0589  -531.5109 H6            1 RES     
   22843 H6         734.3999  -602.9886  -530.3909 H6            1 RES     
   22844 H6         735.4817  -602.8506  -528.9633 H6            1 RES     
   22845 H6         733.2079  -601.9909  -528.5366 H6            1 RES     
   22846 H6         733.4161  -600.7236  -529.8025 H6            1 RES     
   22847 H6         735.3407  -599.7634  -528.4416 H6            1 RES     
   22848 H6         733.8340  -599.8707  -527.4701 H6            1 RES     
   22849 H6         735.1320  -601.0988  -527.2400 H6            1 RES     
   22850 C0         740.9858  -606.3070  -534.1950 C0            1 RES     
   22851 C0         740.1380  -607.2228  -535.1893 C0            1 RES     
   22852 C0         740.3810  -608.7039  -534.7422 C0            1 RES     
   22853 C0         739.8770  -609.7859  -535.7185 C0            1 RES     
   22854 C0         740.1151  -611.2251  -535.2283 C0            1 RES     
   22855 C0         741.5844  -611.6140  -534.9852 C0            1 RES     
   22856 C0         742.5292  -611.3748  -536.1746 C0            1 RES     
   22857 C0         742.0986  -612.1099  -537.4561 C0            1 RES     
   22858 C0         743.0503  -611.8564  -538.6366 C0            1 RES     
   22859 C0         744.4496  -612.4590  -538.4177 C0            1 RES     
   22860 C0         745.3631  -612.3166  -539.6451 C0            1 RES     
   22861 C0         745.7110  -610.8645  -539.9730 C0            1 RES     
   22862 C0         738.6199  -606.9856  -535.5845 C0            1 RES     
   22863 C0         737.4653  -607.1574  -534.5573 C0            1 RES     
   22864 C0         736.8735  -605.8088  -534.1097 C0            1 RES     
   22865 C0         735.7791  -605.8613  -533.0565 C0            1 RES     
   22866 C0         734.4143  -606.3663  -533.5032 C0            1 RES     
   22867 C0         733.4468  -606.1602  -532.3198 C0            1 RES     
   22868 C0         731.9826  -606.4709  -532.6357 C0            1 RES     
   22869 C0         731.3792  -605.4769  -533.6291 C0            1 RES     
   22870 H6         741.0693  -606.8295  -533.2136 H6            1 RES     
   22871 H6         742.0323  -606.4017  -534.5635 H6            1 RES     
   22872 H6         740.6478  -607.0862  -536.1709 H6            1 RES     
   22873 H6         739.9003  -608.8681  -533.7537 H6            1 RES     
   22874 H6         741.4762  -608.8449  -534.6171 H6            1 RES     
   22875 H6         740.3512  -609.6347  -536.7108 H6            1 RES     
   22876 H6         738.7788  -609.7137  -535.8394 H6            1 RES     
   22877 H6         739.6802  -611.9152  -535.9825 H6            1 RES     
   22878 H6         739.5524  -611.3872  -534.2827 H6            1 RES     
   22879 H6         741.6100  -612.6910  -534.7095 H6            1 RES     
   22880 H6         741.9750  -611.0447  -534.1149 H6            1 RES     
   22881 H6         742.5960  -610.2855  -536.3828 H6            1 RES     
   22882 H6         743.5339  -611.7212  -535.8574 H6            1 RES     
   22883 H6         741.0996  -611.7375  -537.7652 H6            1 RES     
   22884 H6         742.0189  -613.2021  -537.2656 H6            1 RES     
   22885 H6         742.6044  -612.3336  -539.5364 H6            1 RES     
   22886 H6         743.1128  -610.7624  -538.8179 H6            1 RES     
   22887 H6         744.9524  -611.9920  -537.5460 H6            1 RES     
   22888 H6         744.3293  -613.5451  -538.2120 H6            1 RES     
   22889 H6         744.8856  -612.7949  -540.5277 H6            1 RES     
   22890 H6         746.3118  -612.8545  -539.4313 H6            1 RES     
   22891 H6         744.8067  -610.2852  -540.2485 H6            1 RES     
   22892 H6         746.2075  -610.3830  -539.1038 H6            1 RES     
   22893 H6         746.4080  -610.8410  -540.8370 H6            1 RES     
   22894 H6         738.4186  -607.7302  -536.3764 H6            1 RES     
   22895 H6         738.4670  -606.0844  -536.2076 H6            1 RES     
   22896 H6         736.6241  -607.6677  -535.0764 H6            1 RES     
   22897 H6         737.7776  -607.8061  -533.7140 H6            1 RES     
   22898 H6         736.5203  -605.2310  -534.9938 H6            1 RES     
   22899 H6         737.6368  -605.2218  -533.6113 H6            1 RES     
   22900 H6         736.1408  -606.4142  -532.1624 H6            1 RES     
   22901 H6         735.6016  -604.8081  -532.7829 H6            1 RES     
   22902 H6         734.0976  -605.7584  -534.3769 H6            1 RES     
   22903 H6         734.4584  -607.4356  -533.7977 H6            1 RES     
   22904 H6         733.7802  -606.8146  -531.4845 H6            1 RES     
   22905 H6         733.4947  -605.1063  -531.9607 H6            1 RES     
   22906 H6         731.4128  -606.3791  -531.6850 H6            1 RES     
   22907 H6         731.8847  -607.5094  -533.0094 H6            1 RES     
   22908 H6         731.8743  -605.5414  -534.6184 H6            1 RES     
   22909 H6         730.3018  -605.7031  -533.7648 H6            1 RES     
   22910 H6         731.4741  -604.4389  -533.2411 H6            1 RES     
   22911 C0         752.0151  -599.8617  -538.1873 C0            1 RES     
   22912 C1         751.0272  -600.1426  -537.0337 C1            1 RES     
   22913 C1         751.6094  -600.0196  -535.8126 C1            1 RES     
   22914 S2         750.5901  -600.4073  -534.5425 S2            1 RES     
   22915 C1         749.3173  -600.8040  -535.5977 C1            1 RES     
   22916 C1         749.7135  -600.6292  -536.9282 C1            1 RES     
   22917 C1         752.9727  -599.6983  -535.9888 C1            1 RES     
   22918 C1         753.2612  -599.6849  -537.3183 C1            1 RES     
   22919 C1         754.6188  -599.5162  -537.5626 C1            1 RES     
   22920 C1         755.3238  -599.3680  -536.3563 C1            1 RES     
   22921 S2         754.2952  -599.4607  -535.0084 S2            1 RES     
   22922 H3         749.0729  -600.9005  -537.7457 H3            1 RES     
   22923 H3         755.0690  -599.5063  -538.5480 H3            1 RES     
   22924 N4         758.7407  -598.0488  -535.5592 N4            1 RES     
   22925 C1         757.3871  -598.1042  -535.7292 C1            1 RES     
   22926 C1         756.7721  -599.2728  -536.2110 C1            1 RES     
   22927 C1         757.5809  -600.3767  -536.4869 C1            1 RES     
   22928 N4         757.1093  -601.5806  -536.9013 N4            1 RES     
   22929 S2         758.4900  -602.4841  -536.9961 S2            1 RES     
   22930 N4         759.6829  -601.4319  -536.5400 N4            1 RES     
   22931 C1         758.9816  -600.3001  -536.2833 C1            1 RES     
   22932 C1         759.5486  -599.1124  -535.8290 C1            1 RES     
   22933 H5         756.7850  -597.2301  -535.4967 H5            1 RES     
   22934 C0         751.8352  -598.5735  -539.0653 C0            1 RES     
   22935 C0         752.0814  -597.0577  -538.7137 C0            1 RES     
   22936 C0         751.5944  -596.2612  -539.9750 C0            1 RES     
   22937 C0         751.7827  -594.7393  -539.9480 C0            1 RES     
   22938 C0         751.2215  -594.0563  -541.2174 C0            1 RES     
   22939 C0         751.8939  -594.4557  -542.5494 C0            1 RES     
   22940 C0         753.4204  -594.2646  -542.5875 C0            1 RES     
   22941 C0         753.8545  -592.8175  -542.2944 C0            1 RES     
   22942 C0         755.3797  -592.6415  -542.2777 C0            1 RES     
   22943 C0         756.0280  -592.8457  -543.6574 C0            1 RES     
   22944 C0         757.5373  -592.5550  -543.6529 C0            1 RES     
   22945 C0         758.3372  -593.5369  -542.7960 C0            1 RES     
   22946 C0         751.5009  -596.4680  -537.3869 C0            1 RES     
   22947 C0         749.9544  -596.3922  -537.1987 C0            1 RES     
   22948 C0         749.5653  -597.2039  -535.9594 C0            1 RES     
   22949 C0         748.0915  -597.5460  -535.7604 C0            1 RES     
   22950 C0         747.2127  -596.4451  -535.1848 C0            1 RES     
   22951 C0         745.7884  -597.0167  -535.0238 C0            1 RES     
   22952 C0         744.8209  -596.0954  -534.2773 C0            1 RES     
   22953 C0         745.1877  -595.9434  -532.7996 C0            1 RES     
   22954 H6         750.8377  -598.5949  -539.4237 H6            1 RES     
   22955 H6         752.5058  -598.7423  -539.9379 H6            1 RES     
   22956 H6         753.1828  -596.9287  -538.6190 H6            1 RES     
   22957 H6         750.5110  -596.4542  -540.1344 H6            1 RES     
   22958 H6         752.1393  -596.6591  -540.8577 H6            1 RES     
   22959 H6         752.8546  -594.4902  -539.8109 H6            1 RES     
   22960 H6         751.2148  -594.3163  -539.0949 H6            1 RES     
   22961 H6         751.3108  -592.9581  -541.0862 H6            1 RES     
   22962 H6         750.1340  -594.2756  -541.3018 H6            1 RES     
   22963 H6         751.4334  -593.8515  -543.3627 H6            1 RES     
   22964 H6         751.6726  -595.5205  -542.7760 H6            1 RES     
   22965 H6         753.8933  -594.9481  -541.8511 H6            1 RES     
   22966 H6         753.7651  -594.5656  -543.5985 H6            1 RES     
   22967 H6         753.4999  -592.5353  -541.2822 H6            1 RES     
   22968 H6         753.3982  -592.1209  -543.0315 H6            1 RES     
   22969 H6         755.5936  -591.6022  -541.9455 H6            1 RES     
   22970 H6         755.8081  -593.3411  -541.5296 H6            1 RES     
   22971 H6         755.8642  -593.8800  -544.0247 H6            1 RES     
   22972 H6         755.5499  -592.1400  -544.3714 H6            1 RES     
   22973 H6         757.7203  -591.5166  -543.3000 H6            1 RES     
   22974 H6         757.9074  -592.6347  -544.6978 H6            1 RES     
   22975 H6         758.0505  -593.4678  -541.7273 H6            1 RES     
   22976 H6         758.1774  -594.5761  -543.1542 H6            1 RES     
   22977 H6         759.4182  -593.2965  -542.8743 H6            1 RES     
   22978 H6         751.8864  -595.4311  -537.2835 H6            1 RES     
   22979 H6         751.9854  -596.9896  -536.5339 H6            1 RES     
   22980 H6         749.6267  -595.3400  -537.0417 H6            1 RES     
   22981 H6         749.4411  -596.7831  -538.1006 H6            1 RES     
   22982 H6         750.0184  -596.7982  -535.0304 H6            1 RES     
   22983 H6         750.0106  -598.1587  -536.1424 H6            1 RES     
   22984 H6         747.6824  -597.9243  -536.7004 H6            1 RES     
   22985 H6         748.0609  -598.3850  -535.0285 H6            1 RES     
   22986 H6         747.6407  -596.1654  -534.1988 H6            1 RES     
   22987 H6         747.1970  -595.5515  -535.8439 H6            1 RES     
   22988 H6         745.3815  -597.2165  -536.0410 H6            1 RES     
   22989 H6         745.8177  -597.9871  -534.4779 H6            1 RES     
   22990 H6         743.8109  -596.5591  -534.3219 H6            1 RES     
   22991 H6         744.7742  -595.1029  -534.7729 H6            1 RES     
   22992 H6         746.1711  -595.4490  -532.6736 H6            1 RES     
   22993 H6         744.4211  -595.3256  -532.2894 H6            1 RES     
   22994 H6         745.2174  -596.9416  -532.3083 H6            1 RES     
   22995 C0         752.0183  -601.1806  -539.0569 C0            1 RES     
   22996 C0         751.4487  -601.3173  -540.5411 C0            1 RES     
   22997 C0         751.1621  -602.8403  -540.7663 C0            1 RES     
   22998 C0         750.8555  -603.2528  -542.2202 C0            1 RES     
   22999 C0         750.5569  -604.7528  -542.3910 C0            1 RES     
   23000 C0         751.6869  -605.7111  -541.9744 C0            1 RES     
   23001 C0         753.0501  -605.4393  -542.6320 C0            1 RES     
   23002 C0         753.0057  -605.4735  -544.1699 C0            1 RES     
   23003 C0         754.3746  -605.1951  -544.8116 C0            1 RES     
   23004 C0         755.4044  -606.3039  -544.5307 C0            1 RES     
   23005 C0         756.7331  -606.0912  -545.2727 C0            1 RES     
   23006 C0         757.4940  -604.8509  -544.8040 C0            1 RES     
   23007 C0         750.3011  -600.4195  -541.1689 C0            1 RES     
   23008 C0         748.8292  -600.5002  -540.6740 C0            1 RES     
   23009 C0         748.4241  -599.2731  -539.8376 C0            1 RES     
   23010 C0         747.0222  -599.2817  -539.2508 C0            1 RES     
   23011 C0         745.8673  -599.0635  -540.2181 C0            1 RES     
   23012 C0         744.5849  -598.9402  -539.3700 C0            1 RES     
   23013 C0         743.3328  -598.5629  -540.1639 C0            1 RES     
   23014 C0         743.4042  -597.1397  -540.7193 C0            1 RES     
   23015 H6         751.5920  -602.0019  -538.4349 H6            1 RES     
   23016 H6         753.0762  -601.5184  -539.1393 H6            1 RES     
   23017 H6         752.3192  -601.0466  -541.1822 H6            1 RES     
   23018 H6         750.3087  -603.1479  -540.1242 H6            1 RES     
   23019 H6         752.0595  -603.4066  -540.4362 H6            1 RES     
   23020 H6         751.7017  -602.9529  -542.8732 H6            1 RES     
   23021 H6         749.9385  -602.7463  -542.5787 H6            1 RES     
   23022 H6         750.3116  -604.9288  -543.4602 H6            1 RES     
   23023 H6         749.6476  -605.0136  -541.8061 H6            1 RES     
   23024 H6         751.3631  -606.7462  -542.2199 H6            1 RES     
   23025 H6         751.8203  -605.6633  -540.8725 H6            1 RES     
   23026 H6         753.4328  -604.4509  -542.2992 H6            1 RES     
   23027 H6         753.7458  -606.2163  -542.2548 H6            1 RES     
   23028 H6         752.3177  -604.6790  -544.5269 H6            1 RES     
   23029 H6         752.6178  -606.4537  -544.5225 H6            1 RES     
   23030 H6         754.2239  -605.1328  -545.9114 H6            1 RES     
   23031 H6         754.7439  -604.2102  -544.4549 H6            1 RES     
   23032 H6         755.6148  -606.3861  -543.4444 H6            1 RES     
   23033 H6         754.9757  -607.2692  -544.8782 H6            1 RES     
   23034 H6         756.5472  -606.0243  -546.3667 H6            1 RES     
   23035 H6         757.3769  -606.9773  -545.0849 H6            1 RES     
   23036 H6         756.9232  -603.9239  -545.0139 H6            1 RES     
   23037 H6         757.7030  -604.9174  -543.7150 H6            1 RES     
   23038 H6         758.4605  -604.7872  -545.3469 H6            1 RES     
   23039 H6         750.2671  -600.7152  -542.2335 H6            1 RES     
   23040 H6         750.6088  -599.3696  -541.3324 H6            1 RES     
   23041 H6         748.1690  -600.4533  -541.5680 H6            1 RES     
   23042 H6         748.6335  -601.4665  -540.1668 H6            1 RES     
   23043 H6         748.5838  -598.3389  -540.4225 H6            1 RES     
   23044 H6         749.0400  -599.2180  -538.9470 H6            1 RES     
   23045 H6         746.8718  -600.2010  -538.6440 H6            1 RES     
   23046 H6         746.9897  -598.4014  -538.5878 H6            1 RES     
   23047 H6         746.0620  -598.1202  -540.7709 H6            1 RES     
   23048 H6         745.7853  -599.9015  -540.9413 H6            1 RES     
   23049 H6         744.4098  -599.9164  -538.8666 H6            1 RES     
   23050 H6         744.7202  -598.1715  -538.5745 H6            1 RES     
   23051 H6         742.4715  -598.6036  -539.4615 H6            1 RES     
   23052 H6         743.1619  -599.2949  -540.9780 H6            1 RES     
   23053 H6         744.2201  -597.0347  -541.4617 H6            1 RES     
   23054 H6         742.4455  -596.8935  -541.2200 H6            1 RES     
   23055 H6         743.5666  -596.4120  -539.8941 H6            1 RES     
   23056 C0         764.8589  -598.2732  -536.6502 C0            1 RES     
   23057 C1         763.4621  -598.5527  -536.0532 C1            1 RES     
   23058 C1         763.5300  -599.0820  -534.8040 C1            1 RES     
   23059 S2         762.0358  -599.4826  -534.1643 S2            1 RES     
   23060 C1         761.2257  -598.9941  -535.5770 C1            1 RES     
   23061 C1         762.1401  -598.5282  -536.5280 C1            1 RES     
   23062 C1         764.8873  -599.2429  -534.4512 C1            1 RES     
   23063 C1         765.6695  -598.8773  -535.5026 C1            1 RES     
   23064 C1         767.0147  -599.1445  -535.2783 C1            1 RES     
   23065 C1         767.2036  -599.6919  -533.9981 C1            1 RES     
   23066 S2         765.7359  -599.8611  -533.1611 S2            1 RES     
   23067 H3         761.8289  -598.2452  -537.5156 H3            1 RES     
   23068 H3         767.8055  -598.9602  -535.9956 H3            1 RES     
   23069 N4         770.2334  -600.0797  -531.8255 N4            1 RES     
   23070 C1         769.0795  -599.5729  -532.3506 C1            1 RES     
   23071 C1         768.4606  -600.1905  -533.4512 C1            1 RES     
   23072 C1         769.0463  -601.3450  -533.9737 C1            1 RES     
   23073 N4         768.5212  -602.0689  -534.9953 N4            1 RES     
   23074 S2         769.5908  -603.3225  -535.1227 S2            1 RES     
   23075 N4         770.7099  -603.0083  -533.9449 N4            1 RES     
   23076 C1         770.2338  -601.8624  -533.3980 C1            1 RES     
   23077 C1         770.8249  -601.2012  -532.3247 C1            1 RES     
   23078 H5         768.6444  -598.6776  -531.9149 H5            1 RES     
   23079 C0         765.3282  -596.7908  -536.8629 C0            1 RES     
   23080 C0         765.7459  -595.6932  -535.8129 C0            1 RES     
   23081 C0         765.9825  -594.3906  -536.6553 C0            1 RES     
   23082 C0         766.4772  -593.1542  -535.8945 C0            1 RES     
   23083 C0         766.6256  -591.9197  -536.8146 C0            1 RES     
   23084 C0         767.6600  -592.0505  -537.9542 C0            1 RES     
   23085 C0         769.0800  -592.4315  -537.4998 C0            1 RES     
   23086 C0         769.6732  -591.4418  -536.4814 C0            1 RES     
   23087 C0         771.0673  -591.8543  -535.9874 C0            1 RES     
   23088 C0         772.1421  -591.7912  -537.0857 C0            1 RES     
   23089 C0         773.5521  -592.0946  -536.5544 C0            1 RES     
   23090 C0         773.7125  -593.5321  -536.0583 C0            1 RES     
   23091 C0         764.8377  -595.4298  -534.5675 C0            1 RES     
   23092 C0         763.4001  -594.8629  -534.7785 C0            1 RES     
   23093 C0         762.3866  -595.8500  -534.1915 C0            1 RES     
   23094 C0         760.9170  -595.6744  -534.5633 C0            1 RES     
   23095 C0         760.1506  -594.6004  -533.8052 C0            1 RES     
   23096 C0         758.6893  -594.6281  -534.3002 C0            1 RES     
   23097 C0         757.7367  -593.7358  -533.5010 C0            1 RES     
   23098 C0         757.5181  -594.2498  -532.0765 C0            1 RES     
   23099 H6         764.5737  -596.3200  -537.4398 H6            1 RES     
   23100 H6         766.2319  -596.8806  -537.5071 H6            1 RES     
   23101 H6         766.7205  -596.0180  -535.3849 H6            1 RES     
   23102 H6         765.0351  -594.1053  -537.1628 H6            1 RES     
   23103 H6         766.7271  -594.6288  -537.4448 H6            1 RES     
   23104 H6         767.4355  -593.3792  -535.3837 H6            1 RES     
   23105 H6         765.7292  -592.8758  -535.1249 H6            1 RES     
   23106 H6         766.8972  -591.0491  -536.1825 H6            1 RES     
   23107 H6         765.6393  -591.6816  -537.2711 H6            1 RES     
   23108 H6         767.7019  -591.0787  -538.4949 H6            1 RES     
   23109 H6         767.3154  -592.8110  -538.6872 H6            1 RES     
   23110 H6         769.0618  -593.4498  -537.0572 H6            1 RES     
   23111 H6         769.7178  -592.4683  -538.4072 H6            1 RES     
   23112 H6         769.0220  -591.4181  -535.5840 H6            1 RES     
   23113 H6         769.7094  -590.4181  -536.9142 H6            1 RES     
   23114 H6         771.3581  -591.1498  -535.1779 H6            1 RES     
   23115 H6         771.0011  -592.8743  -535.5539 H6            1 RES     
   23116 H6         771.9109  -592.4977  -537.9096 H6            1 RES     
   23117 H6         772.1518  -590.7596  -537.5004 H6            1 RES     
   23118 H6         773.8071  -591.3866  -535.7358 H6            1 RES     
   23119 H6         774.2749  -591.9377  -537.3840 H6            1 RES     
   23120 H6         773.0524  -593.7368  -535.1914 H6            1 RES     
   23121 H6         773.4801  -594.2474  -536.8757 H6            1 RES     
   23122 H6         774.7615  -593.6934  -535.7327 H6            1 RES     
   23123 H6         765.3710  -594.7111  -533.9092 H6            1 RES     
   23124 H6         764.8200  -596.3529  -533.9494 H6            1 RES     
   23125 H6         763.2790  -593.8882  -534.2547 H6            1 RES     
   23126 H6         763.2091  -594.7006  -535.8588 H6            1 RES     
   23127 H6         762.5165  -595.9867  -533.0972 H6            1 RES     
   23128 H6         762.6444  -596.7746  -534.6626 H6            1 RES     
   23129 H6         760.8368  -595.5263  -535.6430 H6            1 RES     
   23130 H6         760.4166  -596.6410  -534.3271 H6            1 RES     
   23131 H6         760.2078  -594.8565  -532.7260 H6            1 RES     
   23132 H6         760.5931  -593.5948  -533.9668 H6            1 RES     
   23133 H6         758.6809  -594.2999  -535.3644 H6            1 RES     
   23134 H6         758.2862  -595.6659  -534.2663 H6            1 RES     
   23135 H6         756.7498  -593.7510  -534.0137 H6            1 RES     
   23136 H6         758.1094  -592.6900  -533.4866 H6            1 RES     
   23137 H6         758.4560  -594.2266  -531.4874 H6            1 RES     
   23138 H6         756.7703  -593.6118  -531.5632 H6            1 RES     
   23139 H6         757.1306  -595.2929  -532.1015 H6            1 RES     
   23140 C0         764.9108  -599.1130  -537.9872 C0            1 RES     
   23141 C0         764.9544  -598.5092  -539.4636 C0            1 RES     
   23142 C0         764.4494  -599.6420  -540.4198 C0            1 RES     
   23143 C0         764.6548  -599.3833  -541.9261 C0            1 RES     
   23144 C0         764.1230  -600.5106  -542.8286 C0            1 RES     
   23145 C0         764.7560  -601.8965  -542.6105 C0            1 RES     
   23146 C0         766.2912  -601.9337  -542.6905 C0            1 RES     
   23147 C0         766.8474  -601.4153  -544.0284 C0            1 RES     
   23148 C0         768.3829  -601.4543  -544.0903 C0            1 RES     
   23149 C0         768.9463  -602.8867  -544.0823 C0            1 RES     
   23150 C0         770.4707  -602.9331  -544.2699 C0            1 RES     
   23151 C0         771.2410  -602.3025  -543.1097 C0            1 RES     
   23152 C0         764.3751  -597.0962  -539.8936 C0            1 RES     
   23153 C0         762.8491  -596.7977  -539.8944 C0            1 RES     
   23154 C0         762.4311  -595.8785  -538.7327 C0            1 RES     
   23155 C0         760.9474  -595.5752  -538.6041 C0            1 RES     
   23156 C0         760.3443  -594.6291  -539.6329 C0            1 RES     
   23157 C0         758.8940  -594.3460  -539.1907 C0            1 RES     
   23158 C0         758.1714  -593.2869  -540.0251 C0            1 RES     
   23159 C0         758.7684  -591.8916  -539.8359 C0            1 RES     
   23160 H6         764.1042  -599.8813  -537.9405 H6            1 RES     
   23161 H6         765.8127  -599.7638  -537.9328 H6            1 RES     
   23162 H6         766.0430  -598.3726  -539.6592 H6            1 RES     
   23163 H6         763.3675  -599.8170  -540.2355 H6            1 RES     
   23164 H6         764.9955  -600.5740  -540.1592 H6            1 RES     
   23165 H6         765.7330  -599.2084  -542.1249 H6            1 RES     
   23166 H6         764.0891  -598.4858  -542.2430 H6            1 RES     
   23167 H6         764.2845  -600.2031  -543.8839 H6            1 RES     
   23168 H6         763.0239  -600.6050  -542.6865 H6            1 RES     
   23169 H6         764.3338  -602.5871  -543.3731 H6            1 RES     
   23170 H6         764.4533  -602.2851  -541.6148 H6            1 RES     
   23171 H6         766.7212  -601.3352  -541.8592 H6            1 RES     
   23172 H6         766.5921  -602.9903  -542.5380 H6            1 RES     
   23173 H6         766.5493  -600.3534  -544.1537 H6            1 RES     
   23174 H6         766.4223  -601.9980  -544.8741 H6            1 RES     
   23175 H6         768.6937  -600.9651  -545.0391 H6            1 RES     
   23176 H6         768.7908  -600.8622  -543.2437 H6            1 RES     
   23177 H6         768.6897  -603.4103  -543.1384 H6            1 RES     
   23178 H6         768.4861  -603.4433  -544.9277 H6            1 RES     
   23179 H6         770.7488  -602.4289  -545.2209 H6            1 RES     
   23180 H6         770.7755  -603.9994  -544.3419 H6            1 RES     
   23181 H6         771.0191  -601.2200  -543.0190 H6            1 RES     
   23182 H6         770.9854  -602.8130  -542.1567 H6            1 RES     
   23183 H6         772.3308  -602.4138  -543.2901 H6            1 RES     
   23184 H6         764.6970  -596.9710  -540.9437 H6            1 RES     
   23185 H6         764.9465  -596.2454  -539.4772 H6            1 RES     
   23186 H6         762.6208  -596.2062  -540.8084 H6            1 RES     
   23187 H6         762.2612  -597.7361  -539.9506 H6            1 RES     
   23188 H6         763.0101  -594.9277  -538.7666 H6            1 RES     
   23189 H6         762.6436  -596.3644  -537.7870 H6            1 RES     
   23190 H6         760.3714  -596.5240  -538.5423 H6            1 RES     
   23191 H6         760.8533  -595.0321  -537.6493 H6            1 RES     
   23192 H6         760.9440  -593.6945  -539.6262 H6            1 RES     
   23193 H6         760.3692  -595.0729  -540.6499 H6            1 RES     
   23194 H6         758.3239  -595.2992  -539.2492 H6            1 RES     
   23195 H6         758.8730  -594.0066  -538.1294 H6            1 RES     
   23196 H6         757.1178  -593.2493  -539.6709 H6            1 RES     
   23197 H6         758.1761  -593.5751  -541.0950 H6            1 RES     
   23198 H6         759.8113  -591.8431  -540.2072 H6            1 RES     
   23199 H6         758.1635  -591.1545  -540.4028 H6            1 RES     
   23200 H6         758.7508  -591.6078  -538.7607 H6            1 RES     
   23201 C0         776.0737  -602.1378  -531.2518 C0            1 RES     
   23202 C1         774.5306  -602.0739  -531.2359 C1            1 RES     
   23203 C1         773.9837  -602.9879  -530.3928 C1            1 RES     
   23204 S2         772.3101  -603.0078  -530.4207 S2            1 RES     
   23205 C1         772.2494  -601.8006  -531.6164 C1            1 RES     
   23206 C1         773.5421  -601.4043  -531.9763 C1            1 RES     
   23207 C1         775.0214  -603.7462  -529.8087 C1            1 RES     
   23208 C1         776.2132  -603.3535  -530.3343 C1            1 RES     
   23209 C1         777.2669  -604.1546  -529.9111 C1            1 RES     
   23210 C1         776.8119  -605.1393  -529.0180 C1            1 RES     
   23211 S2         775.1357  -605.0372  -528.7662 S2            1 RES     
   23212 H3         773.7145  -600.7044  -532.7717 H3            1 RES     
   23213 H3         778.2951  -604.0371  -530.2317 H3            1 RES     
   23214 N4         778.5783  -607.3355  -526.5468 N4            1 RES     
   23215 C1         777.8665  -606.2934  -527.0678 C1            1 RES     
   23216 C1         777.6090  -606.2196  -528.4477 C1            1 RES     
   23217 C1         778.0811  -607.2509  -529.2616 C1            1 RES     
   23218 N4         777.8528  -607.3306  -530.5977 N4            1 RES     
   23219 S2         778.5799  -608.7613  -530.9928 S2            1 RES     
   23220 N4         779.1864  -609.3071  -529.5531 N4            1 RES     
   23221 C1         778.8007  -608.3319  -528.6935 C1            1 RES     
   23222 C1         779.0538  -608.3484  -527.3244 C1            1 RES     
   23223 H5         777.5055  -605.5113  -526.4056 H5            1 RES     
   23224 C0         776.9045  -600.9556  -530.6394 C0            1 RES     
   23225 C0         777.1086  -600.5235  -529.1382 C0            1 RES     
   23226 C0         777.9390  -599.1937  -529.2049 C0            1 RES     
   23227 C0         778.3560  -598.5700  -527.8672 C0            1 RES     
   23228 C0         779.1230  -597.2397  -528.0540 C0            1 RES     
   23229 C0         780.4646  -597.3376  -528.8132 C0            1 RES     
   23230 C0         781.4695  -598.3442  -528.2257 C0            1 RES     
   23231 C0         781.8188  -598.0586  -526.7543 C0            1 RES     
   23232 C0         782.7781  -599.0965  -526.1541 C0            1 RES     
   23233 C0         784.1826  -599.0560  -526.7797 C0            1 RES     
   23234 C0         785.1656  -600.0184  -526.0942 C0            1 RES     
   23235 C0         784.7956  -601.4904  -526.2796 C0            1 RES     
   23236 C0         775.8675  -600.3939  -528.1958 C0            1 RES     
   23237 C0         774.7925  -599.3045  -528.4963 C0            1 RES     
   23238 C0         773.4387  -599.9889  -528.7085 C0            1 RES     
   23239 C0         772.3116  -599.1702  -529.3315 C0            1 RES     
   23240 C0         771.5679  -598.2238  -528.4005 C0            1 RES     
   23241 C0         770.4514  -597.5412  -529.2183 C0            1 RES     
   23242 C0         769.4852  -596.6978  -528.3833 C0            1 RES     
   23243 C0         768.6171  -597.5542  -527.4591 C0            1 RES     
   23244 H6         776.5616  -600.0730  -531.1160 H6            1 RES     
   23245 H6         777.9441  -601.1415  -530.9920 H6            1 RES     
   23246 H6         777.7388  -601.3091  -528.6646 H6            1 RES     
   23247 H6         777.3556  -598.4246  -529.7569 H6            1 RES     
   23248 H6         778.8607  -599.3993  -529.7902 H6            1 RES     
   23249 H6         778.9613  -599.2920  -527.2822 H6            1 RES     
   23250 H6         777.4480  -598.3214  -527.2816 H6            1 RES     
   23251 H6         779.3103  -596.8057  -527.0501 H6            1 RES     
   23252 H6         778.4744  -596.5149  -528.5941 H6            1 RES     
   23253 H6         780.9295  -596.3266  -528.8234 H6            1 RES     
   23254 H6         780.2761  -597.6149  -529.8724 H6            1 RES     
   23255 H6         781.0541  -599.3702  -528.3140 H6            1 RES     
   23256 H6         782.3869  -598.2958  -528.8485 H6            1 RES     
   23257 H6         780.8906  -598.1099  -526.1495 H6            1 RES     
   23258 H6         782.2478  -597.0379  -526.6505 H6            1 RES     
   23259 H6         782.8762  -598.8743  -525.0691 H6            1 RES     
   23260 H6         782.3230  -600.1033  -526.2634 H6            1 RES     
   23261 H6         784.1429  -599.2967  -527.8622 H6            1 RES     
   23262 H6         784.5825  -598.0250  -526.6639 H6            1 RES     
   23263 H6         785.2289  -599.7832  -525.0093 H6            1 RES     
   23264 H6         786.1711  -599.8608  -526.5407 H6            1 RES     
   23265 H6         783.8209  -601.7252  -525.8065 H6            1 RES     
   23266 H6         784.7504  -601.7406  -527.3609 H6            1 RES     
   23267 H6         785.5686  -602.1267  -525.7999 H6            1 RES     
   23268 H6         776.2445  -600.1960  -527.1696 H6            1 RES     
   23269 H6         775.4046  -601.3985  -528.0912 H6            1 RES     
   23270 H6         774.6949  -598.5992  -527.6407 H6            1 RES     
   23271 H6         775.0818  -598.7209  -529.3938 H6            1 RES     
   23272 H6         773.0950  -600.5329  -527.8036 H6            1 RES     
   23273 H6         773.6489  -600.7191  -529.4607 H6            1 RES     
   23274 H6         772.6964  -598.6396  -530.2058 H6            1 RES     
   23275 H6         771.5581  -599.9036  -529.6988 H6            1 RES     
   23276 H6         771.1387  -598.8391  -527.5815 H6            1 RES     
   23277 H6         772.2491  -597.4614  -527.9672 H6            1 RES     
   23278 H6         770.9342  -596.8866  -529.9791 H6            1 RES     
   23279 H6         769.8483  -598.3017  -529.7647 H6            1 RES     
   23280 H6         768.8019  -596.1720  -529.0861 H6            1 RES     
   23281 H6         770.0439  -595.9359  -527.8002 H6            1 RES     
   23282 H6         769.2284  -598.0815  -526.7004 H6            1 RES     
   23283 H6         767.8896  -596.9066  -526.9291 H6            1 RES     
   23284 H6         768.0500  -598.3047  -528.0539 H6            1 RES     
   23285 C0         776.4586  -602.4199  -532.7577 C0            1 RES     
   23286 C0         777.2105  -601.4039  -533.7315 C0            1 RES     
   23287 C0         776.8840  -601.8668  -535.1915 C0            1 RES     
   23288 C0         777.7157  -601.1978  -536.3044 C0            1 RES     
   23289 C0         777.3452  -601.6647  -537.7232 C0            1 RES     
   23290 C0         777.5177  -603.1692  -537.9983 C0            1 RES     
   23291 C0         778.9114  -603.7362  -537.6806 C0            1 RES     
   23292 C0         780.0477  -603.0295  -538.4405 C0            1 RES     
   23293 C0         781.4342  -603.6044  -538.1080 C0            1 RES     
   23294 C0         781.6167  -605.0509  -538.6014 C0            1 RES     
   23295 C0         783.0409  -605.5846  -538.3824 C0            1 RES     
   23296 C0         783.4129  -605.7232  -536.9061 C0            1 RES     
   23297 C0         777.1752  -599.8224  -533.6107 C0            1 RES     
   23298 C0         775.8794  -599.0051  -533.8767 C0            1 RES     
   23299 C0         775.2540  -598.4596  -532.5803 C0            1 RES     
   23300 C0         773.9463  -597.6985  -532.7228 C0            1 RES     
   23301 C0         774.0211  -596.3046  -533.3299 C0            1 RES     
   23302 C0         772.6156  -595.6816  -533.2053 C0            1 RES     
   23303 C0         772.5326  -594.2135  -533.6270 C0            1 RES     
   23304 C0         773.3004  -593.2923  -532.6778 C0            1 RES     
   23305 H6         775.5500  -602.8043  -533.2771 H6            1 RES     
   23306 H6         777.0981  -603.3314  -532.7692 H6            1 RES     
   23307 H6         778.2894  -601.6171  -533.5508 H6            1 RES     
   23308 H6         775.8070  -601.6854  -535.3974 H6            1 RES     
   23309 H6         777.0628  -602.9622  -535.2478 H6            1 RES     
   23310 H6         778.7949  -601.3730  -536.1120 H6            1 RES     
   23311 H6         777.5339  -600.1057  -536.3170 H6            1 RES     
   23312 H6         777.9717  -601.0934  -538.4412 H6            1 RES     
   23313 H6         776.2874  -601.3927  -537.9332 H6            1 RES     
   23314 H6         777.2871  -603.3475  -539.0715 H6            1 RES     
   23315 H6         776.7707  -603.7383  -537.4048 H6            1 RES     
   23316 H6         779.1017  -603.6641  -536.5884 H6            1 RES     
   23317 H6         778.8861  -604.8118  -537.9496 H6            1 RES     
   23318 H6         780.0661  -601.9596  -538.1451 H6            1 RES     
   23319 H6         779.8710  -603.0847  -539.5364 H6            1 RES     
   23320 H6         782.1923  -602.9676  -538.6138 H6            1 RES     
   23321 H6         781.5974  -603.5350  -537.0116 H6            1 RES     
   23322 H6         780.9012  -605.7355  -538.1011 H6            1 RES     
   23323 H6         781.4142  -605.0708  -539.6946 H6            1 RES     
   23324 H6         783.7740  -604.9221  -538.8919 H6            1 RES     
   23325 H6         783.1050  -606.5925  -538.8462 H6            1 RES     
   23326 H6         783.4191  -604.7382  -536.3973 H6            1 RES     
   23327 H6         782.6978  -606.4001  -536.3919 H6            1 RES     
   23328 H6         784.4320  -606.1563  -536.8243 H6            1 RES     
   23329 H6         777.9024  -599.4691  -534.3647 H6            1 RES     
   23330 H6         777.7105  -599.4407  -532.7210 H6            1 RES     
   23331 H6         776.1652  -598.0946  -534.4480 H6            1 RES     
   23332 H6         775.1687  -599.5810  -534.5034 H6            1 RES     
   23333 H6         775.9948  -597.8387  -532.0272 H6            1 RES     
   23334 H6         774.9650  -599.2843  -531.9384 H6            1 RES     
   23335 H6         773.1975  -598.3285  -533.2504 H6            1 RES     
   23336 H6         773.6079  -597.5251  -531.6879 H6            1 RES     
   23337 H6         774.7609  -595.7192  -532.7440 H6            1 RES     
   23338 H6         774.3440  -596.3454  -534.3910 H6            1 RES     
   23339 H6         771.9184  -596.2759  -533.8361 H6            1 RES     
   23340 H6         772.2556  -595.7477  -532.1527 H6            1 RES     
   23341 H6         771.4614  -593.9175  -533.5844 H6            1 RES     
   23342 H6         772.8927  -594.0942  -534.6681 H6            1 RES     
   23343 H6         774.3879  -593.5041  -532.6988 H6            1 RES     
   23344 H6         773.1461  -592.2379  -532.9863 H6            1 RES     
   23345 H6         772.9257  -593.4124  -531.6376 H6            1 RES     
   23346 C0         783.1110  -611.4514  -525.4567 C0            1 RES     
   23347 C1         781.7413  -610.8364  -525.8191 C1            1 RES     
   23348 C1         780.7198  -611.7171  -525.6575 C1            1 RES     
   23349 S2         779.2322  -611.1115  -526.1294 S2            1 RES     
   23350 C1         779.9147  -609.6329  -526.6182 C1            1 RES     
   23351 C1         781.2978  -609.6398  -526.4066 C1            1 RES     
   23352 C1         781.2489  -612.9542  -525.2305 C1            1 RES     
   23353 C1         782.6061  -612.8699  -525.1881 C1            1 RES     
   23354 C1         783.2033  -614.0943  -524.9134 C1            1 RES     
   23355 C1         782.2285  -615.0870  -524.7170 C1            1 RES     
   23356 S2         780.6560  -614.4718  -524.8959 S2            1 RES     
   23357 H3         781.9188  -608.8233  -526.7226 H3            1 RES     
   23358 H3         784.2730  -614.2587  -524.8637 H3            1 RES     
   23359 N4         782.3492  -618.4858  -523.1409 N4            1 RES     
   23360 C1         782.1491  -617.1446  -523.3003 C1            1 RES     
   23361 C1         782.4770  -616.5095  -524.5105 C1            1 RES     
   23362 C1         782.9893  -617.2918  -525.5470 C1            1 RES     
   23363 N4         783.2920  -616.8151  -526.7817 N4            1 RES     
   23364 S2         783.7792  -618.1808  -527.5751 S2            1 RES     
   23365 N4         783.6349  -619.3723  -526.4358 N4            1 RES     
   23366 C1         783.1693  -618.6858  -525.3631 C1            1 RES     
   23367 C1         782.8543  -619.2661  -524.1372 C1            1 RES     
   23368 H5         781.7402  -616.5657  -522.4766 H5            1 RES     
   23369 C0         783.8743  -610.9463  -524.1819 C0            1 RES     
   23370 C0         783.5632  -611.1668  -522.6534 C0            1 RES     
   23371 C0         784.6252  -610.2992  -521.8907 C0            1 RES     
   23372 C0         784.6108  -610.3757  -520.3590 C0            1 RES     
   23373 C0         785.6636  -609.4430  -519.7152 C0            1 RES     
   23374 C0         787.1375  -609.7566  -520.0546 C0            1 RES     
   23375 C0         787.5811  -611.1974  -519.7455 C0            1 RES     
   23376 C0         787.3788  -611.5875  -518.2706 C0            1 RES     
   23377 C0         787.7697  -613.0430  -517.9769 C0            1 RES     
   23378 C0         789.2780  -613.3062  -518.1233 C0            1 RES     
   23379 C0         789.6734  -614.7347  -517.7165 C0            1 RES     
   23380 C0         789.0897  -615.8067  -518.6376 C0            1 RES     
   23381 C0         782.1142  -610.9260  -522.1171 C0            1 RES     
   23382 C0         781.5138  -609.4872  -522.1624 C0            1 RES     
   23383 C0         780.2368  -609.5091  -523.0080 C0            1 RES     
   23384 C0         779.6565  -608.1735  -523.4643 C0            1 RES     
   23385 C0         778.8369  -607.4054  -522.4378 C0            1 RES     
   23386 C0         778.3123  -606.1239  -523.1189 C0            1 RES     
   23387 C0         777.3090  -605.3301  -522.2792 C0            1 RES     
   23388 C0         775.9816  -606.0715  -522.1066 C0            1 RES     
   23389 H6         783.9507  -609.8934  -524.2788 H6            1 RES     
   23390 H6         784.8995  -611.3659  -524.2938 H6            1 RES     
   23391 H6         783.7658  -612.2401  -522.4398 H6            1 RES     
   23392 H6         784.4914  -609.2303  -522.1664 H6            1 RES     
   23393 H6         785.6322  -610.6121  -522.2408 H6            1 RES     
   23394 H6         784.7617  -611.4234  -520.0282 H6            1 RES     
   23395 H6         783.6255  -610.0309  -519.9856 H6            1 RES     
   23396 H6         785.5331  -609.4838  -518.6140 H6            1 RES     
   23397 H6         785.4571  -608.3925  -520.0177 H6            1 RES     
   23398 H6         787.7805  -609.0499  -519.4839 H6            1 RES     
   23399 H6         787.3234  -609.5608  -521.1322 H6            1 RES     
   23400 H6         787.0175  -611.9010  -520.3939 H6            1 RES     
   23401 H6         788.6551  -611.2764  -520.0138 H6            1 RES     
   23402 H6         786.3015  -611.5007  -518.0218 H6            1 RES     
   23403 H6         787.9472  -610.8987  -517.6078 H6            1 RES     
   23404 H6         787.4808  -613.2621  -516.9259 H6            1 RES     
   23405 H6         787.1832  -613.7081  -518.6450 H6            1 RES     
   23406 H6         789.6140  -613.1253  -519.1653 H6            1 RES     
   23407 H6         789.8180  -612.6022  -517.4533 H6            1 RES     
   23408 H6         789.3562  -614.9299  -516.6688 H6            1 RES     
   23409 H6         790.7811  -614.8126  -517.7620 H6            1 RES     
   23410 H6         787.9819  -615.8160  -518.5963 H6            1 RES     
   23411 H6         789.4182  -615.6324  -519.6843 H6            1 RES     
   23412 H6         789.4505  -616.8054  -518.3138 H6            1 RES     
   23413 H6         782.0919  -611.2480  -521.0540 H6            1 RES     
   23414 H6         781.4373  -611.6604  -522.6039 H6            1 RES     
   23415 H6         781.2471  -609.1381  -521.1396 H6            1 RES     
   23416 H6         782.2535  -608.7787  -522.5874 H6            1 RES     
   23417 H6         779.4544  -610.1660  -522.5730 H6            1 RES     
   23418 H6         780.5578  -609.9568  -523.9244 H6            1 RES     
   23419 H6         780.4606  -607.5539  -523.8686 H6            1 RES     
   23420 H6         778.9654  -608.4040  -524.3069 H6            1 RES     
   23421 H6         777.9961  -608.0629  -522.1307 H6            1 RES     
   23422 H6         779.4440  -607.1462  -521.5448 H6            1 RES     
   23423 H6         779.1869  -605.4723  -523.3446 H6            1 RES     
   23424 H6         777.8198  -606.3711  -524.0869 H6            1 RES     
   23425 H6         777.0913  -604.3826  -522.8196 H6            1 RES     
   23426 H6         777.7478  -605.0782  -521.2908 H6            1 RES     
   23427 H6         776.1129  -607.0132  -521.5381 H6            1 RES     
   23428 H6         775.2677  -605.4287  -521.5527 H6            1 RES     
   23429 H6         775.5425  -606.3063  -523.1019 H6            1 RES     
   23430 C0         783.9829  -611.3154  -526.7670 C0            1 RES     
   23431 C0         785.2614  -610.3765  -526.9400 C0            1 RES     
   23432 C0         785.4402  -610.1520  -528.4795 C0            1 RES     
   23433 C0         786.7676  -609.4939  -528.9073 C0            1 RES     
   23434 C0         786.8902  -609.2710  -530.4250 C0            1 RES     
   23435 C0         786.8188  -610.5388  -531.2949 C0            1 RES     
   23436 C0         787.8126  -611.6489  -530.9149 C0            1 RES     
   23437 C0         789.2818  -611.1921  -530.9448 C0            1 RES     
   23438 C0         790.2617  -612.3115  -530.5578 C0            1 RES     
   23439 C0         790.2977  -613.4574  -531.5849 C0            1 RES     
   23440 C0         791.3650  -614.5159  -531.2660 C0            1 RES     
   23441 C0         791.0871  -615.2824  -529.9728 C0            1 RES     
   23442 C0         785.5329  -609.0392  -526.1308 C0            1 RES     
   23443 C0         784.6615  -607.7664  -526.3278 C0            1 RES     
   23444 C0         783.7154  -607.5144  -525.1401 C0            1 RES     
   23445 C0         782.7725  -606.3285  -525.2602 C0            1 RES     
   23446 C0         783.3863  -604.9419  -525.1274 C0            1 RES     
   23447 C0         782.2208  -603.9319  -525.1082 C0            1 RES     
   23448 C0         782.6374  -602.4874  -524.8251 C0            1 RES     
   23449 C0         783.1545  -602.3011  -523.3979 C0            1 RES     
   23450 H6         783.2904  -611.1350  -527.6219 H6            1 RES     
   23451 H6         784.3564  -612.3332  -527.0213 H6            1 RES     
   23452 H6         786.1064  -611.0185  -526.5994 H6            1 RES     
   23453 H6         784.5998  -609.5295  -528.8555 H6            1 RES     
   23454 H6         785.3792  -611.1442  -528.9761 H6            1 RES     
   23455 H6         787.6167  -610.1072  -528.5394 H6            1 RES     
   23456 H6         786.8522  -608.4796  -528.4716 H6            1 RES     
   23457 H6         787.8577  -608.7587  -530.6141 H6            1 RES     
   23458 H6         786.0885  -608.5759  -530.7585 H6            1 RES     
   23459 H6         786.9944  -610.2372  -532.3507 H6            1 RES     
   23460 H6         785.7929  -610.9619  -531.2424 H6            1 RES     
   23461 H6         787.5699  -612.0340  -529.9015 H6            1 RES     
   23462 H6         787.6573  -612.4759  -531.6375 H6            1 RES     
   23463 H6         789.4193  -610.3767  -530.2042 H6            1 RES     
   23464 H6         789.5418  -610.7961  -531.9503 H6            1 RES     
   23465 H6         791.2780  -611.8644  -530.5019 H6            1 RES     
   23466 H6         789.9925  -612.6906  -529.5490 H6            1 RES     
   23467 H6         789.3110  -613.9597  -531.6559 H6            1 RES     
   23468 H6         790.5415  -613.0224  -532.5787 H6            1 RES     
   23469 H6         792.3661  -614.0361  -531.2082 H6            1 RES     
   23470 H6         791.3808  -615.2497  -532.1005 H6            1 RES     
   23471 H6         791.1112  -614.6097  -529.0919 H6            1 RES     
   23472 H6         790.0970  -615.7829  -530.0283 H6            1 RES     
   23473 H6         791.8688  -616.0582  -529.8316 H6            1 RES     
   23474 H6         786.5562  -608.7397  -526.4229 H6            1 RES     
   23475 H6         785.7462  -609.2132  -525.0594 H6            1 RES     
   23476 H6         785.3426  -606.8871  -526.3278 H6            1 RES     
   23477 H6         784.1453  -607.7869  -527.3089 H6            1 RES     
   23478 H6         784.2973  -607.4406  -524.1934 H6            1 RES     
   23479 H6         783.0228  -608.3428  -525.0418 H6            1 RES     
   23480 H6         782.1715  -606.4160  -526.1914 H6            1 RES     
   23481 H6         782.1028  -606.4125  -524.3885 H6            1 RES     
   23482 H6         783.9466  -604.9098  -524.1691 H6            1 RES     
   23483 H6         784.0819  -604.7286  -525.9656 H6            1 RES     
   23484 H6         781.7142  -603.9718  -526.0976 H6            1 RES     
   23485 H6         781.4717  -604.2210  -524.3353 H6            1 RES     
   23486 H6         781.7299  -601.8540  -524.9360 H6            1 RES     
   23487 H6         783.3938  -602.1564  -525.5641 H6            1 RES     
   23488 H6         784.0866  -602.8752  -523.2263 H6            1 RES     
   23489 H6         783.3714  -601.2271  -523.2243 H6            1 RES     
   23490 H6         782.3852  -602.6273  -522.6639 H6            1 RES     
   23491 C0         785.0560  -624.0788  -522.8847 C0            1 RES     
   23492 C1         784.1117  -622.9204  -523.2747 C1            1 RES     
   23493 C1         782.9412  -623.3629  -523.8034 C1            1 RES     
   23494 S2         781.9326  -622.1315  -524.3218 S2            1 RES     
   23495 C1         783.0613  -620.9353  -523.8906 C1            1 RES     
   23496 C1         784.2114  -621.5211  -523.3504 C1            1 RES     
   23497 C1         782.9720  -624.7731  -523.8603 C1            1 RES     
   23498 C1         784.1856  -625.2121  -523.4299 C1            1 RES     
   23499 C1         784.3397  -626.5835  -523.5931 C1            1 RES     
   23500 C1         783.1725  -627.1519  -524.1306 C1            1 RES     
   23501 S2         781.9751  -625.9824  -524.4173 S2            1 RES     
   23502 H3         785.0707  -620.9340  -523.0875 H3            1 RES     
   23503 H3         785.2387  -627.1346  -523.3445 H3            1 RES     
   23504 N4         781.9087  -630.6770  -524.2932 N4            1 RES     
   23505 C1         782.0897  -629.3901  -523.8747 C1            1 RES     
   23506 C1         782.9981  -628.5431  -524.5329 C1            1 RES     
   23507 C1         783.6888  -629.0482  -525.6359 C1            1 RES     
   23508 N4         784.5492  -628.3204  -526.3932 N4            1 RES     
   23509 S2         784.9928  -629.4044  -527.5595 S2            1 RES     
   23510 N4         784.1529  -630.7746  -527.1653 N4            1 RES     
   23511 C1         783.4685  -630.3819  -526.0625 C1            1 RES     
   23512 C1         782.5778  -631.1917  -525.3629 C1            1 RES     
   23513 H5         781.5299  -629.0250  -523.0181 H5            1 RES     
   23514 C0         785.3491  -624.3628  -521.3694 C0            1 RES     
   23515 C0         784.4227  -624.9679  -520.2479 C0            1 RES     
   23516 C0         785.2639  -624.8712  -518.9267 C0            1 RES     
   23517 C0         784.6330  -625.4616  -517.6595 C0            1 RES     
   23518 C0         785.5269  -625.2642  -516.4126 C0            1 RES     
   23519 C0         786.9064  -625.9577  -516.4571 C0            1 RES     
   23520 C0         786.8619  -627.4717  -516.7292 C0            1 RES     
   23521 C0         786.0161  -628.2445  -515.7015 C0            1 RES     
   23522 C0         785.9274  -629.7466  -516.0072 C0            1 RES     
   23523 C0         787.2730  -630.4760  -515.8553 C0            1 RES     
   23524 C0         787.1499  -631.9955  -516.0512 C0            1 RES     
   23525 C0         786.7527  -632.3892  -517.4744 C0            1 RES     
   23526 C0         782.9721  -624.4144  -520.0620 C0            1 RES     
   23527 C0         782.7727  -622.9359  -519.6072 C0            1 RES     
   23528 C0         781.9597  -622.1946  -520.6729 C0            1 RES     
   23529 C0         781.9165  -620.6705  -520.6098 C0            1 RES     
   23530 C0         780.9522  -620.0616  -519.6024 C0            1 RES     
   23531 C0         781.0352  -618.5269  -519.7408 C0            1 RES     
   23532 C0         779.9858  -617.7639  -518.9291 C0            1 RES     
   23533 C0         778.5689  -617.9778  -519.4656 C0            1 RES     
   23534 H6         785.6886  -623.4478  -520.9556 H6            1 RES     
   23535 H6         786.2153  -625.0622  -521.3856 H6            1 RES     
   23536 H6         784.2821  -626.0431  -520.4983 H6            1 RES     
   23537 H6         785.4894  -623.8035  -518.7132 H6            1 RES     
   23538 H6         786.2308  -625.3894  -519.1025 H6            1 RES     
   23539 H6         784.4058  -626.5363  -517.8120 H6            1 RES     
   23540 H6         783.6833  -624.9318  -517.4437 H6            1 RES     
   23541 H6         784.9693  -625.6324  -515.5267 H6            1 RES     
   23542 H6         785.6940  -624.1764  -516.2494 H6            1 RES     
   23543 H6         787.4130  -625.7802  -515.4823 H6            1 RES     
   23544 H6         787.5385  -625.4841  -517.2383 H6            1 RES     
   23545 H6         786.4573  -627.6488  -517.7480 H6            1 RES     
   23546 H6         787.9084  -627.8406  -516.7118 H6            1 RES     
   23547 H6         784.9760  -627.8610  -515.7329 H6            1 RES     
   23548 H6         786.4161  -628.0869  -514.6759 H6            1 RES     
   23549 H6         785.2085  -630.1935  -515.2863 H6            1 RES     
   23550 H6         785.5186  -629.8754  -517.0314 H6            1 RES     
   23551 H6         788.0219  -630.0825  -516.5735 H6            1 RES     
   23552 H6         787.6482  -630.2973  -514.8241 H6            1 RES     
   23553 H6         786.4124  -632.4101  -515.3297 H6            1 RES     
   23554 H6         788.1394  -632.4528  -515.8346 H6            1 RES     
   23555 H6         785.7455  -632.0056  -517.7340 H6            1 RES     
   23556 H6         787.4953  -631.9971  -518.2015 H6            1 RES     
   23557 H6         786.7265  -633.4960  -517.5555 H6            1 RES     
   23558 H6         782.4638  -625.0520  -519.3074 H6            1 RES     
   23559 H6         782.3962  -624.6326  -520.9867 H6            1 RES     
   23560 H6         782.2107  -622.8902  -518.6474 H6            1 RES     
   23561 H6         783.7568  -622.4480  -519.4549 H6            1 RES     
   23562 H6         780.9450  -622.6258  -520.8046 H6            1 RES     
   23563 H6         782.5066  -622.3821  -521.5723 H6            1 RES     
   23564 H6         782.9303  -620.2900  -520.4631 H6            1 RES     
   23565 H6         781.5791  -620.3251  -521.6136 H6            1 RES     
   23566 H6         779.9355  -620.4278  -519.8586 H6            1 RES     
   23567 H6         781.2012  -620.3689  -518.5647 H6            1 RES     
   23568 H6         782.0487  -618.2064  -519.4089 H6            1 RES     
   23569 H6         780.9206  -618.2253  -520.8069 H6            1 RES     
   23570 H6         780.2134  -616.6789  -519.0182 H6            1 RES     
   23571 H6         780.0455  -618.0488  -517.8576 H6            1 RES     
   23572 H6         778.2543  -619.0359  -519.3727 H6            1 RES     
   23573 H6         777.8566  -617.3525  -518.8900 H6            1 RES     
   23574 H6         778.5153  -617.6756  -520.5355 H6            1 RES     
   23575 C0         786.3786  -623.8277  -523.7112 C0            1 RES     
   23576 C0         787.7959  -623.4252  -523.0985 C0            1 RES     
   23577 C0         788.6093  -622.7645  -524.2622 C0            1 RES     
   23578 C0         790.1079  -622.5344  -523.9809 C0            1 RES     
   23579 C0         790.8623  -621.8620  -525.1415 C0            1 RES     
   23580 C0         790.8589  -622.6302  -526.4752 C0            1 RES     
   23581 C0         791.3511  -624.0847  -526.3929 C0            1 RES     
   23582 C0         792.7756  -624.2179  -525.8262 C0            1 RES     
   23583 C0         793.2505  -625.6778  -525.7457 C0            1 RES     
   23584 C0         793.4319  -626.3257  -527.1301 C0            1 RES     
   23585 C0         794.0250  -627.7414  -527.0572 C0            1 RES     
   23586 C0         793.0997  -628.7489  -526.3746 C0            1 RES     
   23587 C0         788.0170  -622.6492  -521.7325 C0            1 RES     
   23588 C0         787.5984  -621.1624  -521.5532 C0            1 RES     
   23589 C0         786.3436  -621.0087  -520.6751 C0            1 RES     
   23590 C0         785.8117  -619.5973  -520.4884 C0            1 RES     
   23591 C0         786.6148  -618.6703  -519.5868 C0            1 RES     
   23592 C0         785.7905  -617.3774  -519.4192 C0            1 RES     
   23593 C0         786.3714  -616.3801  -518.4152 C0            1 RES     
   23594 C0         786.3143  -616.9021  -516.9787 C0            1 RES     
   23595 H6         786.1358  -623.1226  -524.5400 H6            1 RES     
   23596 H6         786.5863  -624.7558  -524.2905 H6            1 RES     
   23597 H6         788.2744  -624.4071  -522.8770 H6            1 RES     
   23598 H6         788.1445  -621.7888  -524.5216 H6            1 RES     
   23599 H6         788.5299  -623.4276  -525.1504 H6            1 RES     
   23600 H6         790.5857  -623.5025  -523.7220 H6            1 RES     
   23601 H6         790.2372  -621.8398  -523.1284 H6            1 RES     
   23602 H6         791.9137  -621.7085  -524.8171 H6            1 RES     
   23603 H6         790.4314  -620.8525  -525.3216 H6            1 RES     
   23604 H6         791.4969  -622.0690  -527.1926 H6            1 RES     
   23605 H6         789.8288  -622.6380  -526.8911 H6            1 RES     
   23606 H6         790.6515  -624.6788  -525.7669 H6            1 RES     
   23607 H6         791.3128  -624.4923  -527.4236 H6            1 RES     
   23608 H6         792.7884  -623.8201  -524.7900 H6            1 RES     
   23609 H6         793.4901  -623.6235  -526.4358 H6            1 RES     
   23610 H6         794.2350  -625.6832  -525.2292 H6            1 RES     
   23611 H6         792.5305  -626.2554  -525.1280 H6            1 RES     
   23612 H6         792.4676  -626.3736  -527.6767 H6            1 RES     
   23613 H6         794.1358  -625.6957  -527.7165 H6            1 RES     
   23614 H6         795.0024  -627.7136  -526.5282 H6            1 RES     
   23615 H6         794.2040  -628.0925  -528.0963 H6            1 RES     
   23616 H6         792.9246  -628.4812  -525.3131 H6            1 RES     
   23617 H6         792.1267  -628.7993  -526.9082 H6            1 RES     
   23618 H6         793.5703  -629.7542  -526.4002 H6            1 RES     
   23619 H6         789.1115  -622.6644  -521.5775 H6            1 RES     
   23620 H6         787.7485  -623.2481  -520.8421 H6            1 RES     
   23621 H6         788.4012  -620.6523  -520.9767 H6            1 RES     
   23622 H6         787.5180  -620.6517  -522.5342 H6            1 RES     
   23623 H6         786.5079  -621.4855  -519.6821 H6            1 RES     
   23624 H6         785.5032  -621.5046  -521.1478 H6            1 RES     
   23625 H6         785.6212  -619.1308  -521.4793 H6            1 RES     
   23626 H6         784.8532  -619.7259  -519.9590 H6            1 RES     
   23627 H6         786.7460  -619.1792  -518.6085 H6            1 RES     
   23628 H6         787.6119  -618.4511  -520.0222 H6            1 RES     
   23629 H6         785.7176  -616.8842  -520.4135 H6            1 RES     
   23630 H6         784.7545  -617.6200  -519.0878 H6            1 RES     
   23631 H6         785.7451  -615.4622  -518.4612 H6            1 RES     
   23632 H6         787.4099  -616.1158  -518.6968 H6            1 RES     
   23633 H6         786.9518  -617.7989  -516.8477 H6            1 RES     
   23634 H6         786.6777  -616.1139  -516.2880 H6            1 RES     
   23635 H6         785.2673  -617.1558  -516.7025 H6            1 RES     
   23636 C0         782.9855  -636.5888  -525.8950 C0            1 RES     
   23637 C1         782.5521  -635.1073  -525.9511 C1            1 RES     
   23638 C1         781.6167  -634.8780  -526.9090 C1            1 RES     
   23639 S2         781.1925  -633.2655  -527.0584 S2            1 RES     
   23640 C1         782.2959  -632.7947  -525.8535 C1            1 RES     
   23641 C1         782.9809  -633.9089  -525.3564 C1            1 RES     
   23642 C1         781.3540  -636.0877  -527.5874 C1            1 RES     
   23643 C1         782.1713  -637.0604  -527.1008 C1            1 RES     
   23644 C1         782.0690  -638.2451  -527.8199 C1            1 RES     
   23645 C1         781.1120  -638.1227  -528.8414 C1            1 RES     
   23646 S2         780.4147  -636.5747  -528.8708 S2            1 RES     
   23647 H3         783.7749  -633.8075  -524.6412 H3            1 RES     
   23648 H3         782.6520  -639.1365  -527.6214 H3            1 RES     
   23649 N4         779.2666  -640.6487  -530.9064 N4            1 RES     
   23650 C1         779.5492  -639.7479  -529.9200 C1            1 RES     
   23651 C1         780.8060  -639.1214  -529.8595 C1            1 RES     
   23652 C1         781.7435  -639.4295  -530.8469 C1            1 RES     
   23653 N4         782.9699  -638.8542  -530.9374 N4            1 RES     
   23654 S2         783.5834  -639.5498  -532.3055 S2            1 RES     
   23655 N4         782.3754  -640.5621  -532.8098 N4            1 RES     
   23656 C1         781.4187  -640.3534  -531.8718 C1            1 RES     
   23657 C1         780.1696  -640.9685  -531.8754 C1            1 RES     
   23658 H5         778.7941  -639.5236  -529.1715 H5            1 RES     
   23659 C0         782.5896  -637.4655  -524.6550 C0            1 RES     
   23660 C0         781.1885  -638.0365  -524.2159 C0            1 RES     
   23661 C0         781.4425  -638.7180  -522.8254 C0            1 RES     
   23662 C0         780.2513  -639.4350  -522.1779 C0            1 RES     
   23663 C0         780.6037  -640.0231  -520.7913 C0            1 RES     
   23664 C0         781.6990  -641.1122  -520.7811 C0            1 RES     
   23665 C0         781.4306  -642.3097  -521.7096 C0            1 RES     
   23666 C0         780.1012  -643.0228  -521.4052 C0            1 RES     
   23667 C0         779.8091  -644.1821  -522.3686 C0            1 RES     
   23668 C0         780.7892  -645.3577  -522.2161 C0            1 RES     
   23669 C0         780.4195  -646.5575  -523.1028 C0            1 RES     
   23670 C0         780.5361  -646.2600  -524.5982 C0            1 RES     
   23671 C0         779.9433  -637.0913  -524.1877 C0            1 RES     
   23672 C0         779.9143  -635.8982  -523.1834 C0            1 RES     
   23673 C0         779.7709  -634.5916  -523.9697 C0            1 RES     
   23674 C0         780.0453  -633.2809  -523.2377 C0            1 RES     
   23675 C0         778.9241  -632.7500  -522.3565 C0            1 RES     
   23676 C0         779.3924  -631.4068  -521.7584 C0            1 RES     
   23677 C0         778.3062  -630.6439  -520.9967 C0            1 RES     
   23678 C0         777.2044  -630.1240  -521.9225 C0            1 RES     
   23679 H6         782.9331  -636.9425  -523.7993 H6            1 RES     
   23680 H6         783.2143  -638.3814  -524.7580 H6            1 RES     
   23681 H6         780.9230  -638.8273  -524.9527 H6            1 RES     
   23682 H6         781.7966  -637.9521  -522.1012 H6            1 RES     
   23683 H6         782.2598  -639.4591  -522.9560 H6            1 RES     
   23684 H6         779.8702  -640.2274  -522.8538 H6            1 RES     
   23685 H6         779.4361  -638.7040  -522.0035 H6            1 RES     
   23686 H6         779.6768  -640.4431  -520.3491 H6            1 RES     
   23687 H6         780.9299  -639.2011  -520.1162 H6            1 RES     
   23688 H6         781.8082  -641.4815  -519.7370 H6            1 RES     
   23689 H6         782.6748  -640.6646  -521.0668 H6            1 RES     
   23690 H6         781.4300  -641.9622  -522.7643 H6            1 RES     
   23691 H6         782.2764  -643.0178  -521.5871 H6            1 RES     
   23692 H6         779.2699  -642.2995  -521.5313 H6            1 RES     
   23693 H6         780.0907  -643.3878  -520.3548 H6            1 RES     
   23694 H6         778.7855  -644.5541  -522.1449 H6            1 RES     
   23695 H6         779.8175  -643.7895  -523.4070 H6            1 RES     
   23696 H6         781.8267  -645.0438  -522.4538 H6            1 RES     
   23697 H6         780.7590  -645.6973  -521.1579 H6            1 RES     
   23698 H6         779.3861  -646.8950  -522.8689 H6            1 RES     
   23699 H6         781.1164  -647.3900  -522.8655 H6            1 RES     
   23700 H6         779.8238  -645.4699  -524.9102 H6            1 RES     
   23701 H6         781.5712  -645.9419  -524.8457 H6            1 RES     
   23702 H6         780.2993  -647.1785  -525.1750 H6            1 RES     
   23703 H6         779.0521  -637.7167  -523.9663 H6            1 RES     
   23704 H6         779.7436  -636.7490  -525.2257 H6            1 RES     
   23705 H6         779.0461  -635.9847  -522.4922 H6            1 RES     
   23706 H6         780.8412  -635.8899  -522.5746 H6            1 RES     
   23707 H6         778.8212  -634.5468  -524.5432 H6            1 RES     
   23708 H6         780.5705  -634.6429  -524.6776 H6            1 RES     
   23709 H6         780.9771  -633.3744  -522.6745 H6            1 RES     
   23710 H6         780.2145  -632.5119  -524.0255 H6            1 RES     
   23711 H6         778.0358  -632.6052  -523.0073 H6            1 RES     
   23712 H6         778.6711  -633.4655  -521.5458 H6            1 RES     
   23713 H6         780.2381  -631.6160  -521.0646 H6            1 RES     
   23714 H6         779.7752  -630.7357  -522.5607 H6            1 RES     
   23715 H6         778.7848  -629.7592  -520.5220 H6            1 RES     
   23716 H6         777.8760  -631.2824  -520.1967 H6            1 RES     
   23717 H6         776.6527  -630.9550  -522.4045 H6            1 RES     
   23718 H6         776.4813  -629.5219  -521.3358 H6            1 RES     
   23719 H6         777.6434  -629.4735  -522.7117 H6            1 RES     
   23720 C0         784.5462  -636.5707  -526.1389 C0            1 RES     
   23721 C0         785.6602  -636.9541  -525.0628 C0            1 RES     
   23722 C0         786.9893  -636.2789  -525.5423 C0            1 RES     
   23723 C0         788.2677  -636.7265  -524.8053 C0            1 RES     
   23724 C0         789.5455  -636.0207  -525.2924 C0            1 RES     
   23725 C0         789.8957  -636.2219  -526.7776 C0            1 RES     
   23726 C0         789.9805  -637.6872  -527.2363 C0            1 RES     
   23727 C0         791.0003  -638.5201  -526.4399 C0            1 RES     
   23728 C0         791.0693  -639.9830  -526.9072 C0            1 RES     
   23729 C0         791.6308  -640.1305  -528.3327 C0            1 RES     
   23730 C0         791.8180  -641.5959  -528.7554 C0            1 RES     
   23731 C0         790.5010  -642.3632  -528.8722 C0            1 RES     
   23732 C0         785.4935  -636.8370  -523.4894 C0            1 RES     
   23733 C0         785.3788  -635.4613  -522.7738 C0            1 RES     
   23734 C0         783.9481  -635.1724  -522.2849 C0            1 RES     
   23735 C0         783.7127  -633.8229  -521.6268 C0            1 RES     
   23736 C0         784.2813  -633.6280  -520.2282 C0            1 RES     
   23737 C0         783.7661  -632.2672  -519.7167 C0            1 RES     
   23738 C0         784.1117  -631.9656  -518.2573 C0            1 RES     
   23739 C0         783.3814  -632.8922  -517.2841 C0            1 RES     
   23740 H6         784.8108  -635.5861  -526.5900 H6            1 RES     
   23741 H6         784.7533  -637.2483  -526.9980 H6            1 RES     
   23742 H6         785.7828  -638.0541  -525.1926 H6            1 RES     
   23743 H6         786.8923  -635.1761  -525.4439 H6            1 RES     
   23744 H6         787.1200  -636.5155  -526.6202 H6            1 RES     
   23745 H6         788.3782  -637.8273  -524.8972 H6            1 RES     
   23746 H6         788.2025  -636.4686  -523.7305 H6            1 RES     
   23747 H6         790.3909  -636.3855  -524.6706 H6            1 RES     
   23748 H6         789.4552  -634.9285  -525.1022 H6            1 RES     
   23749 H6         790.8710  -635.7228  -526.9678 H6            1 RES     
   23750 H6         789.1375  -635.7075  -527.4058 H6            1 RES     
   23751 H6         788.9787  -638.1606  -527.1552 H6            1 RES     
   23752 H6         790.2605  -637.6689  -528.3094 H6            1 RES     
   23753 H6         790.6933  -638.5394  -525.3733 H6            1 RES     
   23754 H6         792.0090  -638.0575  -526.5031 H6            1 RES     
   23755 H6         791.7443  -640.5269  -526.2110 H6            1 RES     
   23756 H6         790.0561  -640.4317  -526.8309 H6            1 RES     
   23757 H6         790.9738  -639.6296  -529.0732 H6            1 RES     
   23758 H6         792.6289  -639.6414  -528.3628 H6            1 RES     
   23759 H6         792.4892  -642.1129  -528.0356 H6            1 RES     
   23760 H6         792.3078  -641.6056  -529.7530 H6            1 RES     
   23761 H6         789.9874  -642.4349  -527.8922 H6            1 RES     
   23762 H6         789.8305  -641.8658  -529.6050 H6            1 RES     
   23763 H6         790.7084  -643.3952  -529.2254 H6            1 RES     
   23764 H6         786.4064  -637.3047  -523.0770 H6            1 RES     
   23765 H6         784.7717  -637.5639  -523.0718 H6            1 RES     
   23766 H6         785.9824  -635.5141  -521.8409 H6            1 RES     
   23767 H6         785.8051  -634.6515  -523.3999 H6            1 RES     
   23768 H6         783.5996  -635.9879  -521.6112 H6            1 RES     
   23769 H6         783.2735  -635.1295  -523.1326 H6            1 RES     
   23770 H6         784.0349  -633.0075  -522.3103 H6            1 RES     
   23771 H6         782.6209  -633.7659  -521.4853 H6            1 RES     
   23772 H6         783.9019  -634.4540  -519.5902 H6            1 RES     
   23773 H6         785.3909  -633.6534  -520.2386 H6            1 RES     
   23774 H6         784.2005  -631.4706  -520.3602 H6            1 RES     
   23775 H6         782.6575  -632.2118  -519.8158 H6            1 RES     
   23776 H6         783.7740  -630.9273  -518.0455 H6            1 RES     
   23777 H6         785.2079  -632.0204  -518.1053 H6            1 RES     
   23778 H6         783.7005  -633.9458  -517.4109 H6            1 RES     
   23779 H6         783.6095  -632.5833  -516.2434 H6            1 RES     
   23780 H6         782.2822  -632.8233  -517.4382 H6            1 RES     
   23781 C0         779.5466  -645.5962  -534.6638 C0            1 RES     
   23782 C1         779.5100  -644.1382  -534.1550 C1            1 RES     
   23783 C1         779.1015  -643.2662  -535.1131 C1            1 RES     
   23784 S2         779.1387  -641.6662  -534.6223 S2            1 RES     
   23785 C1         779.7553  -642.0804  -533.0928 C1            1 RES     
   23786 C1         779.9249  -643.4657  -532.9935 C1            1 RES     
   23787 C1         778.8652  -643.9804  -536.3076 C1            1 RES     
   23788 C1         779.1884  -645.2884  -536.1184 C1            1 RES     
   23789 C1         779.1168  -646.0257  -537.2943 C1            1 RES     
   23790 C1         778.6904  -645.2161  -538.3606 C1            1 RES     
   23791 S2         778.4224  -643.6132  -537.8682 S2            1 RES     
   23792 H3         780.3756  -643.9163  -532.1297 H3            1 RES     
   23793 H3         779.3618  -647.0779  -537.3754 H3            1 RES     
   23794 N4         777.2935  -646.0081  -541.7476 N4            1 RES     
   23795 C1         777.3583  -645.6746  -540.4252 C1            1 RES     
   23796 C1         778.5954  -645.6147  -539.7604 C1            1 RES     
   23797 C1         779.7515  -645.8829  -540.4955 C1            1 RES     
   23798 N4         781.0094  -645.8039  -539.9906 N4            1 RES     
   23799 S2         781.9397  -646.1566  -541.3105 S2            1 RES     
   23800 N4         780.8349  -646.4141  -542.5152 N4            1 RES     
   23801 C1         779.6590  -646.2077  -541.8722 C1            1 RES     
   23802 C1         778.4090  -646.2802  -542.4813 C1            1 RES     
   23803 H5         776.4403  -645.4630  -539.8838 H5            1 RES     
   23804 C0         778.5124  -646.6372  -534.1074 C0            1 RES     
   23805 C0         776.9629  -646.7690  -534.3590 C0            1 RES     
   23806 C0         776.4930  -647.9315  -533.4155 C0            1 RES     
   23807 C0         775.0166  -648.3384  -533.5006 C0            1 RES     
   23808 C0         774.6569  -649.4549  -532.4922 C0            1 RES     
   23809 C0         775.3894  -650.8006  -532.6889 C0            1 RES     
   23810 C0         775.2488  -651.4156  -534.0925 C0            1 RES     
   23811 C0         773.7846  -651.6498  -534.5044 C0            1 RES     
   23812 C0         773.6450  -652.2112  -535.9267 C0            1 RES     
   23813 C0         774.1996  -653.6385  -536.0715 C0            1 RES     
   23814 C0         773.9517  -654.2329  -537.4670 C0            1 RES     
   23815 C0         774.7085  -653.5016  -538.5764 C0            1 RES     
   23816 C0         776.0495  -645.5060  -534.2340 C0            1 RES     
   23817 C0         775.8940  -644.8120  -532.8458 C0            1 RES     
   23818 C0         776.3639  -643.3589  -532.9625 C0            1 RES     
   23819 C0         776.6121  -642.5803  -531.6737 C0            1 RES     
   23820 C0         775.3830  -642.0156  -530.9766 C0            1 RES     
   23821 C0         775.8640  -641.2336  -529.7362 C0            1 RES     
   23822 C0         774.7645  -640.4400  -529.0268 C0            1 RES     
   23823 C0         774.2593  -639.2672  -529.8697 C0            1 RES     
   23824 H6         778.5991  -646.6071  -533.0513 H6            1 RES     
   23825 H6         778.9076  -647.6216  -534.4456 H6            1 RES     
   23826 H6         776.8397  -647.1001  -535.4144 H6            1 RES     
   23827 H6         776.6946  -647.6500  -532.3588 H6            1 RES     
   23828 H6         777.1097  -648.8260  -533.6477 H6            1 RES     
   23829 H6         774.7660  -648.6496  -534.5350 H6            1 RES     
   23830 H6         774.3825  -647.4686  -533.2350 H6            1 RES     
   23831 H6         773.5628  -649.6311  -532.5486 H6            1 RES     
   23832 H6         774.8653  -649.0977  -531.4594 H6            1 RES     
   23833 H6         774.9953  -651.5205  -531.9374 H6            1 RES     
   23834 H6         776.4718  -650.6726  -532.4739 H6            1 RES     
   23835 H6         775.7391  -650.7506  -534.8344 H6            1 RES     
   23836 H6         775.7989  -652.3795  -534.0866 H6            1 RES     
   23837 H6         773.2522  -650.6769  -534.5028 H6            1 RES     
   23838 H6         773.2822  -652.3245  -533.7770 H6            1 RES     
   23839 H6         772.5610  -652.2348  -536.1729 H6            1 RES     
   23840 H6         774.1469  -651.5161  -536.6320 H6            1 RES     
   23841 H6         775.2886  -653.6653  -535.8598 H6            1 RES     
   23842 H6         773.6822  -654.2867  -535.3310 H6            1 RES     
   23843 H6         772.8627  -654.2268  -537.6915 H6            1 RES     
   23844 H6         774.2963  -655.2895  -537.4585 H6            1 RES     
   23845 H6         774.3700  -652.4502  -538.6718 H6            1 RES     
   23846 H6         775.8001  -653.5205  -538.3719 H6            1 RES     
   23847 H6         774.5199  -654.0089  -539.5457 H6            1 RES     
   23848 H6         775.0285  -645.7963  -534.5621 H6            1 RES     
   23849 H6         776.3544  -644.7782  -535.0162 H6            1 RES     
   23850 H6         774.8285  -644.8077  -532.5236 H6            1 RES     
   23851 H6         776.4843  -645.3549  -532.0800 H6            1 RES     
   23852 H6         775.7511  -642.7739  -533.6802 H6            1 RES     
   23853 H6         777.3442  -643.4514  -533.3793 H6            1 RES     
   23854 H6         777.2022  -643.1971  -530.9915 H6            1 RES     
   23855 H6         777.2426  -641.7055  -531.9528 H6            1 RES     
   23856 H6         774.8775  -641.3400  -531.6988 H6            1 RES     
   23857 H6         774.6805  -642.8212  -530.6756 H6            1 RES     
   23858 H6         776.3003  -641.9640  -529.0177 H6            1 RES     
   23859 H6         776.6693  -640.5167  -530.0159 H6            1 RES     
   23860 H6         775.2014  -640.0152  -528.0963 H6            1 RES     
   23861 H6         773.9250  -641.1105  -528.7466 H6            1 RES     
   23862 H6         773.7718  -639.6162  -530.8013 H6            1 RES     
   23863 H6         773.5169  -638.6849  -529.2870 H6            1 RES     
   23864 H6         775.1050  -638.5931  -530.1329 H6            1 RES     
   23865 C0         781.0396  -646.0680  -534.4540 C0            1 RES     
   23866 C0         781.5269  -647.1793  -533.4179 C0            1 RES     
   23867 C0         783.0512  -646.9172  -533.1726 C0            1 RES     
   23868 C0         783.8041  -648.0271  -532.4114 C0            1 RES     
   23869 C0         785.2923  -647.7171  -532.1721 C0            1 RES     
   23870 C0         786.1431  -647.5057  -533.4372 C0            1 RES     
   23871 C0         786.0742  -648.6439  -534.4688 C0            1 RES     
   23872 C0         786.4876  -650.0124  -533.8992 C0            1 RES     
   23873 C0         786.4084  -651.1399  -534.9413 C0            1 RES     
   23874 C0         787.4363  -650.9801  -536.0757 C0            1 RES     
   23875 C0         787.4447  -652.1684  -537.0499 C0            1 RES     
   23876 C0         786.1447  -652.3084  -537.8421 C0            1 RES     
   23877 C0         780.7867  -647.5612  -532.0676 C0            1 RES     
   23878 C0         780.7083  -646.5781  -530.8654 C0            1 RES     
   23879 C0         779.3033  -645.9735  -530.6934 C0            1 RES     
   23880 C0         779.1339  -644.9490  -529.5836 C0            1 RES     
   23881 C0         779.1359  -645.4726  -528.1543 C0            1 RES     
   23882 C0         778.7768  -644.2851  -527.2378 C0            1 RES     
   23883 C0         778.5795  -644.6558  -525.7668 C0            1 RES     
   23884 C0         777.3404  -645.5252  -525.5481 C0            1 RES     
   23885 H6         781.6710  -645.1584  -534.3236 H6            1 RES     
   23886 H6         781.4114  -646.4321  -535.4385 H6            1 RES     
   23887 H6         781.4436  -648.1297  -533.9941 H6            1 RES     
   23888 H6         783.1703  -645.9631  -532.6152 H6            1 RES     
   23889 H6         783.5384  -646.7968  -534.1640 H6            1 RES     
   23890 H6         783.6949  -648.9868  -532.9588 H6            1 RES     
   23891 H6         783.3813  -648.1520  -531.3958 H6            1 RES     
   23892 H6         785.7222  -648.5569  -531.5854 H6            1 RES     
   23893 H6         785.3790  -646.8063  -531.5396 H6            1 RES     
   23894 H6         787.1990  -647.3661  -533.1176 H6            1 RES     
   23895 H6         785.8268  -646.5663  -533.9388 H6            1 RES     
   23896 H6         785.0431  -648.7139  -534.8766 H6            1 RES     
   23897 H6         786.7492  -648.3596  -535.3017 H6            1 RES     
   23898 H6         785.7907  -650.2854  -533.0794 H6            1 RES     
   23899 H6         787.5153  -649.9605  -533.4793 H6            1 RES     
   23900 H6         786.6173  -652.0977  -534.4169 H6            1 RES     
   23901 H6         785.3745  -651.1827  -535.3451 H6            1 RES     
   23902 H6         787.2514  -650.0506  -536.6527 H6            1 RES     
   23903 H6         788.4475  -650.9128  -535.6182 H6            1 RES     
   23904 H6         787.6468  -653.1098  -536.4942 H6            1 RES     
   23905 H6         788.2712  -652.0113  -537.7761 H6            1 RES     
   23906 H6         785.2859  -652.5209  -537.1740 H6            1 RES     
   23907 H6         785.9439  -651.3797  -538.4176 H6            1 RES     
   23908 H6         786.2398  -653.1537  -538.5556 H6            1 RES     
   23909 H6         781.3362  -648.4422  -531.6883 H6            1 RES     
   23910 H6         779.8174  -648.0690  -532.2300 H6            1 RES     
   23911 H6         780.8694  -647.1674  -529.9358 H6            1 RES     
   23912 H6         781.5140  -645.8184  -530.9209 H6            1 RES     
   23913 H6         778.5471  -646.7832  -530.5795 H6            1 RES     
   23914 H6         779.0432  -645.3962  -531.5735 H6            1 RES     
   23915 H6         779.8703  -644.1263  -529.7128 H6            1 RES     
   23916 H6         778.1163  -644.5487  -529.7237 H6            1 RES     
   23917 H6         778.3638  -646.2677  -528.0836 H6            1 RES     
   23918 H6         780.1249  -645.8974  -527.8835 H6            1 RES     
   23919 H6         779.5935  -643.5337  -527.3119 H6            1 RES     
   23920 H6         777.8382  -643.7968  -527.5880 H6            1 RES     
   23921 H6         778.4250  -643.7084  -525.2051 H6            1 RES     
   23922 H6         779.4863  -645.1573  -525.3744 H6            1 RES     
   23923 H6         777.4415  -646.5084  -526.0490 H6            1 RES     
   23924 H6         777.2041  -645.7017  -524.4614 H6            1 RES     
   23925 H6         776.4347  -645.0097  -525.9366 H6            1 RES     
   23926 C0         777.9217  -649.0854  -547.1150 C0            1 RES     
   23927 C1         778.0124  -647.9885  -546.0314 C1            1 RES     
   23928 C1         778.2169  -646.7543  -546.5607 C1            1 RES     
   23929 S2         778.4120  -645.5554  -545.4087 S2            1 RES     
   23930 C1         778.2705  -646.6679  -544.1307 C1            1 RES     
   23931 C1         778.0761  -647.9611  -544.6283 C1            1 RES     
   23932 C1         778.3164  -646.8717  -547.9639 C1            1 RES     
   23933 C1         778.2409  -648.1853  -548.3096 C1            1 RES     
   23934 C1         778.4750  -648.3895  -549.6642 C1            1 RES     
   23935 C1         778.6921  -647.1652  -550.3187 C1            1 RES     
   23936 S2         778.6148  -645.8526  -549.2442 S2            1 RES     
   23937 H3         778.0397  -648.8141  -543.9776 H3            1 RES     
   23938 H3         778.4925  -649.3602  -550.1451 H3            1 RES     
   23939 N4         778.5986  -646.1666  -553.9303 N4            1 RES     
   23940 C1         778.2114  -646.3594  -552.6353 C1            1 RES     
   23941 C1         779.0682  -646.9908  -551.7171 C1            1 RES     
   23942 C1         780.3293  -647.3918  -552.1617 C1            1 RES     
   23943 N4         781.2716  -647.9590  -551.3656 N4            1 RES     
   23944 S2         782.5419  -648.1481  -552.4060 S2            1 RES     
   23945 N4         781.9713  -647.5493  -553.8393 N4            1 RES     
   23946 C1         780.7150  -647.1625  -553.5063 C1            1 RES     
   23947 C1         779.8221  -646.5565  -554.3862 C1            1 RES     
   23948 H5         777.2264  -646.0275  -552.3190 H5            1 RES     
   23949 C0         776.5495  -649.7982  -547.3831 C0            1 RES     
   23950 C0         775.2357  -649.2574  -548.0638 C0            1 RES     
   23951 C0         774.1884  -650.4157  -547.9087 C0            1 RES     
   23952 C0         772.8137  -650.1969  -548.5526 C0            1 RES     
   23953 C0         771.8496  -651.3783  -548.2927 C0            1 RES     
   23954 C0         772.2825  -652.7410  -548.8770 C0            1 RES     
   23955 C0         772.5715  -652.7356  -550.3885 C0            1 RES     
   23956 C0         771.3741  -652.2590  -551.2297 C0            1 RES     
   23957 C0         771.6831  -652.2011  -552.7326 C0            1 RES     
   23958 C0         771.9189  -653.5871  -553.3562 C0            1 RES     
   23959 C0         772.1134  -653.5273  -554.8796 C0            1 RES     
   23960 C0         773.3863  -652.7892  -555.2958 C0            1 RES     
   23961 C0         774.6511  -647.8749  -547.6254 C0            1 RES     
   23962 C0         774.1213  -647.6984  -546.1690 C0            1 RES     
   23963 C0         774.9086  -646.5750  -545.4877 C0            1 RES     
   23964 C0         774.7969  -646.4389  -543.9719 C0            1 RES     
   23965 C0         773.5513  -645.7418  -543.4447 C0            1 RES     
   23966 C0         773.6672  -645.6714  -541.9075 C0            1 RES     
   23967 C0         772.5831  -644.8283  -541.2322 C0            1 RES     
   23968 C0         772.7227  -643.3387  -541.5526 C0            1 RES     
   23969 H6         776.2192  -650.1692  -546.4466 H6            1 RES     
   23970 H6         776.8169  -650.6765  -548.0131 H6            1 RES     
   23971 H6         775.4665  -649.1333  -549.1454 H6            1 RES     
   23972 H6         774.0162  -650.6117  -546.8278 H6            1 RES     
   23973 H6         774.6319  -651.3341  -548.3495 H6            1 RES     
   23974 H6         772.9270  -650.0162  -549.6409 H6            1 RES     
   23975 H6         772.3361  -649.3050  -548.0992 H6            1 RES     
   23976 H6         770.8559  -651.1101  -548.7075 H6            1 RES     
   23977 H6         771.7095  -651.5032  -547.1961 H6            1 RES     
   23978 H6         771.4763  -653.4785  -548.6655 H6            1 RES     
   23979 H6         773.1928  -653.1013  -548.3519 H6            1 RES     
   23980 H6         773.4476  -652.0841  -550.5913 H6            1 RES     
   23981 H6         772.8467  -653.7718  -550.6752 H6            1 RES     
   23982 H6         771.1137  -651.2241  -550.9278 H6            1 RES     
   23983 H6         770.4907  -652.9092  -551.0467 H6            1 RES     
   23984 H6         770.8068  -651.7392  -553.2374 H6            1 RES     
   23985 H6         772.5620  -651.5406  -552.8875 H6            1 RES     
   23986 H6         772.8021  -654.0824  -552.9022 H6            1 RES     
   23987 H6         771.0228  -654.2136  -553.1541 H6            1 RES     
   23988 H6         771.2306  -653.0454  -555.3538 H6            1 RES     
   23989 H6         772.1837  -654.5692  -555.2600 H6            1 RES     
   23990 H6         773.3546  -651.7240  -554.9902 H6            1 RES     
   23991 H6         774.2764  -653.2761  -554.8437 H6            1 RES     
   23992 H6         773.4859  -652.8232  -556.4009 H6            1 RES     
   23993 H6         773.8040  -647.6383  -548.3042 H6            1 RES     
   23994 H6         775.3914  -647.0875  -547.8829 H6            1 RES     
   23995 H6         773.0447  -647.4158  -546.1719 H6            1 RES     
   23996 H6         774.2276  -648.6485  -545.6070 H6            1 RES     
   23997 H6         774.7727  -645.5970  -545.9957 H6            1 RES     
   23998 H6         775.9268  -646.8699  -545.6277 H6            1 RES     
   23999 H6         774.9194  -647.4239  -543.5147 H6            1 RES     
   24000 H6         775.6631  -645.8178  -543.6487 H6            1 RES     
   24001 H6         773.5330  -644.7234  -543.8872 H6            1 RES     
   24002 H6         772.6276  -646.2845  -543.7369 H6            1 RES     
   24003 H6         773.6130  -646.7107  -541.5110 H6            1 RES     
   24004 H6         774.6547  -645.2504  -541.6103 H6            1 RES     
   24005 H6         772.7022  -644.9431  -540.1323 H6            1 RES     
   24006 H6         771.5752  -645.1969  -541.5170 H6            1 RES     
   24007 H6         772.5758  -643.1395  -542.6324 H6            1 RES     
   24008 H6         771.9604  -642.7652  -540.9873 H6            1 RES     
   24009 H6         773.7303  -642.9752  -541.2502 H6            1 RES     
   24010 C0         779.0677  -650.1125  -546.7580 C0            1 RES     
   24011 C0         778.8499  -651.6093  -546.2499 C0            1 RES     
   24012 C0         780.1725  -652.0262  -545.5223 C0            1 RES     
   24013 C0         780.3001  -653.5239  -545.1781 C0            1 RES     
   24014 C0         781.6034  -653.8841  -544.4434 C0            1 RES     
   24015 C0         782.9062  -653.5758  -545.2029 C0            1 RES     
   24016 C0         782.9973  -654.1771  -546.6152 C0            1 RES     
   24017 C0         782.8396  -655.7076  -546.6404 C0            1 RES     
   24018 C0         782.9280  -656.2922  -548.0595 C0            1 RES     
   24019 C0         784.3262  -656.1386  -548.6844 C0            1 RES     
   24020 C0         784.4526  -656.8313  -550.0502 C0            1 RES     
   24021 C0         783.5719  -656.2021  -551.1298 C0            1 RES     
   24022 C0         777.5747  -652.1348  -545.4659 C0            1 RES     
   24023 C0         777.2508  -651.6726  -544.0170 C0            1 RES     
   24024 C0         776.0630  -650.6950  -543.9654 C0            1 RES     
   24025 C0         775.7033  -650.1317  -542.6005 C0            1 RES     
   24026 C0         775.0282  -651.0789  -541.6185 C0            1 RES     
   24027 C0         774.6111  -650.2384  -540.3943 C0            1 RES     
   24028 C0         773.7757  -650.9950  -539.3600 C0            1 RES     
   24029 C0         772.3911  -651.3677  -539.8920 C0            1 RES     
   24030 H6         779.7817  -649.6032  -546.0697 H6            1 RES     
   24031 H6         779.7052  -650.2229  -547.6643 H6            1 RES     
   24032 H6         778.7911  -652.2005  -547.1928 H6            1 RES     
   24033 H6         780.2715  -651.4382  -544.5843 H6            1 RES     
   24034 H6         781.0232  -651.7578  -546.1851 H6            1 RES     
   24035 H6         780.2048  -654.1236  -546.1075 H6            1 RES     
   24036 H6         779.4965  -653.8281  -544.4798 H6            1 RES     
   24037 H6         781.5710  -654.9699  -544.2105 H6            1 RES     
   24038 H6         781.6345  -653.3478  -543.4695 H6            1 RES     
   24039 H6         783.7544  -653.9525  -544.5903 H6            1 RES     
   24040 H6         783.0287  -652.4750  -545.2884 H6            1 RES     
   24041 H6         782.2214  -653.7188  -547.2650 H6            1 RES     
   24042 H6         783.9897  -653.8908  -547.0194 H6            1 RES     
   24043 H6         781.8354  -655.9716  -546.2480 H6            1 RES     
   24044 H6         783.6038  -656.1845  -545.9893 H6            1 RES     
   24045 H6         782.6965  -657.3775  -547.9911 H6            1 RES     
   24046 H6         782.1540  -655.8108  -548.6942 H6            1 RES     
   24047 H6         784.5934  -655.0684  -548.8042 H6            1 RES     
   24048 H6         785.0643  -656.6091  -547.9988 H6            1 RES     
   24049 H6         784.2065  -657.9107  -549.9494 H6            1 RES     
   24050 H6         785.5102  -656.7473  -550.3812 H6            1 RES     
   24051 H6         782.4960  -656.3021  -550.8818 H6            1 RES     
   24052 H6         783.8243  -655.1273  -551.2528 H6            1 RES     
   24053 H6         783.7495  -656.7205  -552.0955 H6            1 RES     
   24054 H6         777.7212  -653.2284  -545.3970 H6            1 RES     
   24055 H6         776.6606  -652.1623  -546.0883 H6            1 RES     
   24056 H6         776.8993  -652.5621  -543.4490 H6            1 RES     
   24057 H6         778.1602  -651.2923  -543.5092 H6            1 RES     
   24058 H6         775.1639  -651.1568  -544.4331 H6            1 RES     
   24059 H6         776.3040  -649.7967  -544.5226 H6            1 RES     
   24060 H6         776.5937  -649.6462  -542.1452 H6            1 RES     
   24061 H6         774.9385  -649.3646  -542.8057 H6            1 RES     
   24062 H6         774.1351  -651.5073  -542.1206 H6            1 RES     
   24063 H6         775.7108  -651.9019  -541.3205 H6            1 RES     
   24064 H6         775.5358  -649.8629  -539.9033 H6            1 RES     
   24065 H6         774.0188  -649.3517  -540.7182 H6            1 RES     
   24066 H6         773.6273  -650.3142  -538.4932 H6            1 RES     
   24067 H6         774.3202  -651.8960  -539.0145 H6            1 RES     
   24068 H6         772.4601  -652.0809  -540.7373 H6            1 RES     
   24069 H6         771.8039  -651.8459  -539.0814 H6            1 RES     
   24070 H6         771.8492  -650.4562  -540.2276 H6            1 RES     
   24071 C0         780.5836  -647.1992  -559.7327 C0            1 RES     
   24072 C1         780.4824  -646.6595  -558.2890 C1            1 RES     
   24073 C1         781.1461  -645.4853  -558.1281 C1            1 RES     
   24074 S2         781.1339  -644.9194  -556.5526 S2            1 RES     
   24075 C1         780.2597  -646.2705  -556.0038 C1            1 RES     
   24076 C1         779.9948  -647.1443  -557.0640 C1            1 RES     
   24077 C1         781.7595  -645.1380  -559.3512 C1            1 RES     
   24078 C1         781.5368  -646.1256  -560.2600 C1            1 RES     
   24079 C1         782.2320  -645.9193  -561.4455 C1            1 RES     
   24080 C1         782.9538  -644.7150  -561.3925 C1            1 RES     
   24081 S2         782.7540  -643.9243  -559.9031 S2            1 RES     
   24082 H3         779.5180  -648.0928  -556.9049 H3            1 RES     
   24083 H3         782.2212  -646.5979  -562.2900 H3            1 RES     
   24084 N4         784.5088  -642.5693  -564.0436 N4            1 RES     
   24085 C1         783.6123  -643.0418  -563.1286 C1            1 RES     
   24086 C1         783.8770  -644.2186  -562.4068 C1            1 RES     
   24087 C1         785.0884  -644.8733  -562.6364 C1            1 RES     
   24088 N4         785.4916  -645.9838  -561.9672 N4            1 RES     
   24089 S2         786.9919  -646.2528  -562.6063 S2            1 RES     
   24090 N4         787.1775  -645.0309  -563.7067 N4            1 RES     
   24091 C1         786.0111  -644.3516  -563.5775 C1            1 RES     
   24092 C1         785.6934  -643.1968  -564.2876 C1            1 RES     
   24093 H5         782.6823  -642.5035  -562.9672 H5            1 RES     
   24094 C0         779.3059  -647.2196  -560.6437 C0            1 RES     
   24095 C0         778.5199  -646.0357  -561.3238 C0            1 RES     
   24096 C0         777.2676  -646.7062  -561.9905 C0            1 RES     
   24097 C0         776.3415  -645.7909  -562.8010 C0            1 RES     
   24098 C0         775.1170  -646.5481  -563.3668 C0            1 RES     
   24099 C0         775.4308  -647.6819  -564.3678 C0            1 RES     
   24100 C0         776.2831  -647.2605  -565.5778 C0            1 RES     
   24101 C0         775.6498  -646.1192  -566.3933 C0            1 RES     
   24102 C0         776.5282  -645.6628  -567.5670 C0            1 RES     
   24103 C0         776.6763  -646.7309  -568.6638 C0            1 RES     
   24104 C0         777.4609  -646.2237  -569.8842 C0            1 RES     
   24105 C0         778.9242  -645.9086  -569.5711 C0            1 RES     
   24106 C0         778.1323  -644.7789  -560.4781 C0            1 RES     
   24107 C0         777.1271  -644.9358  -559.2959 C0            1 RES     
   24108 C0         777.8114  -644.4893  -558.0004 C0            1 RES     
   24109 C0         777.1471  -644.8550  -556.6761 C0            1 RES     
   24110 C0         775.9827  -643.9788  -556.2382 C0            1 RES     
   24111 C0         775.4987  -644.4919  -554.8657 C0            1 RES     
   24112 C0         774.4527  -643.5999  -554.1931 C0            1 RES     
   24113 C0         775.0331  -642.2534  -553.7556 C0            1 RES     
   24114 H6         778.5614  -647.7428  -560.0999 H6            1 RES     
   24115 H6         779.5973  -647.8584  -561.5078 H6            1 RES     
   24116 H6         779.1779  -645.6391  -562.1291 H6            1 RES     
   24117 H6         776.6462  -647.1862  -561.2030 H6            1 RES     
   24118 H6         777.6330  -647.5096  -562.6653 H6            1 RES     
   24119 H6         776.9096  -645.3001  -563.6171 H6            1 RES     
   24120 H6         775.9347  -645.0023  -562.1363 H6            1 RES     
   24121 H6         774.4521  -645.8090  -563.8597 H6            1 RES     
   24122 H6         774.5340  -646.9838  -562.5254 H6            1 RES     
   24123 H6         774.4648  -648.0967  -564.7327 H6            1 RES     
   24124 H6         775.9576  -648.5082  -563.8444 H6            1 RES     
   24125 H6         777.2891  -646.9485  -565.2262 H6            1 RES     
   24126 H6         776.4117  -648.1573  -566.2188 H6            1 RES     
   24127 H6         775.5282  -645.2342  -565.7361 H6            1 RES     
   24128 H6         774.6453  -646.4206  -566.7633 H6            1 RES     
   24129 H6         776.0463  -644.7682  -568.0183 H6            1 RES     
   24130 H6         777.5199  -645.3606  -567.1697 H6            1 RES     
   24131 H6         777.1769  -647.6393  -568.2692 H6            1 RES     
   24132 H6         775.6582  -647.0137  -569.0100 H6            1 RES     
   24133 H6         776.9657  -645.3201  -570.3020 H6            1 RES     
   24134 H6         777.4421  -647.0180  -570.6613 H6            1 RES     
   24135 H6         779.0119  -645.0824  -568.8370 H6            1 RES     
   24136 H6         779.4335  -646.8116  -569.1725 H6            1 RES     
   24137 H6         779.4392  -645.5923  -570.5023 H6            1 RES     
   24138 H6         777.6949  -644.0294  -561.1719 H6            1 RES     
   24139 H6         779.0687  -644.2808  -560.1471 H6            1 RES     
   24140 H6         776.2297  -644.2962  -559.4530 H6            1 RES     
   24141 H6         776.7909  -645.9898  -559.2188 H6            1 RES     
   24142 H6         778.1061  -643.4191  -558.0265 H6            1 RES     
   24143 H6         778.7100  -645.0687  -557.9860 H6            1 RES     
   24144 H6         776.8588  -645.9088  -556.6999 H6            1 RES     
   24145 H6         777.9312  -644.7475  -555.8924 H6            1 RES     
   24146 H6         776.3657  -642.9393  -556.1594 H6            1 RES     
   24147 H6         775.1525  -644.0081  -556.9751 H6            1 RES     
   24148 H6         775.0644  -645.5069  -555.0122 H6            1 RES     
   24149 H6         776.3568  -644.5927  -554.1629 H6            1 RES     
   24150 H6         774.1020  -644.1230  -553.2763 H6            1 RES     
   24151 H6         773.5830  -643.4506  -554.8670 H6            1 RES     
   24152 H6         775.3697  -641.6542  -554.6245 H6            1 RES     
   24153 H6         774.2577  -641.6742  -553.2143 H6            1 RES     
   24154 H6         775.8944  -642.4132  -553.0691 H6            1 RES     
   24155 C0         781.2391  -648.6297  -559.5924 C0            1 RES     
   24156 C0         780.5137  -650.0186  -559.8936 C0            1 RES     
   24157 C0         781.3165  -651.1149  -559.1151 C0            1 RES     
   24158 C0         780.9635  -652.5744  -559.4658 C0            1 RES     
   24159 C0         781.7590  -653.6171  -558.6606 C0            1 RES     
   24160 C0         783.2882  -653.5654  -558.8267 C0            1 RES     
   24161 C0         783.7905  -653.6299  -560.2787 C0            1 RES     
   24162 C0         783.3206  -654.8856  -561.0340 C0            1 RES     
   24163 C0         783.8268  -654.9323  -562.4848 C0            1 RES     
   24164 C0         785.3542  -655.0958  -562.5811 C0            1 RES     
   24165 C0         785.8495  -655.2683  -564.0255 C0            1 RES     
   24166 C0         785.6263  -654.0288  -564.8920 C0            1 RES     
   24167 C0         778.9512  -650.2765  -559.7977 C0            1 RES     
   24168 C0         778.1959  -650.2595  -558.4386 C0            1 RES     
   24169 C0         777.3318  -648.9977  -558.2640 C0            1 RES     
   24170 C0         776.6000  -648.8512  -556.9401 C0            1 RES     
   24171 C0         775.4022  -649.7617  -556.7088 C0            1 RES     
   24172 C0         774.7357  -649.3061  -555.3945 C0            1 RES     
   24173 C0         773.4164  -650.0112  -555.0744 C0            1 RES     
   24174 C0         772.3065  -649.6419  -556.0597 C0            1 RES     
   24175 H6         781.7193  -648.6893  -558.5880 H6            1 RES     
   24176 H6         782.1394  -648.6453  -560.2476 H6            1 RES     
   24177 H6         780.7002  -650.1818  -560.9802 H6            1 RES     
   24178 H6         781.1671  -650.9676  -558.0236 H6            1 RES     
   24179 H6         782.3954  -650.9655  -559.3354 H6            1 RES     
   24180 H6         781.1102  -652.7363  -560.5543 H6            1 RES     
   24181 H6         779.9047  -652.7842  -559.2191 H6            1 RES     
   24182 H6         781.3980  -654.6237  -558.9619 H6            1 RES     
   24183 H6         781.5233  -653.5019  -557.5798 H6            1 RES     
   24184 H6         783.7216  -654.4134  -558.2525 H6            1 RES     
   24185 H6         783.6751  -652.6298  -558.3695 H6            1 RES     
   24186 H6         783.4543  -652.7251  -560.8287 H6            1 RES     
   24187 H6         784.8985  -653.6064  -560.2333 H6            1 RES     
   24188 H6         782.2116  -654.8814  -561.0823 H6            1 RES     
   24189 H6         783.6417  -655.8027  -560.4943 H6            1 RES     
   24190 H6         783.3528  -655.8087  -562.9782 H6            1 RES     
   24191 H6         783.4915  -654.0135  -563.0111 H6            1 RES     
   24192 H6         785.8769  -654.2278  -562.1289 H6            1 RES     
   24193 H6         785.6398  -656.0097  -562.0159 H6            1 RES     
   24194 H6         785.3510  -656.1454  -564.4925 H6            1 RES     
   24195 H6         786.9421  -655.4687  -563.9921 H6            1 RES     
   24196 H6         784.5463  -653.8067  -565.0082 H6            1 RES     
   24197 H6         786.1380  -653.1502  -564.4444 H6            1 RES     
   24198 H6         786.0489  -654.2078  -565.9030 H6            1 RES     
   24199 H6         778.8127  -651.2987  -560.1952 H6            1 RES     
   24200 H6         778.3733  -649.7502  -560.5804 H6            1 RES     
   24201 H6         777.4622  -651.0955  -558.4491 H6            1 RES     
   24202 H6         778.8927  -650.4397  -557.5951 H6            1 RES     
   24203 H6         776.6104  -648.9055  -559.1074 H6            1 RES     
   24204 H6         777.9647  -648.1173  -558.2693 H6            1 RES     
   24205 H6         777.3238  -648.9154  -556.0988 H6            1 RES     
   24206 H6         776.1677  -647.8374  -556.9687 H6            1 RES     
   24207 H6         774.7070  -649.6310  -557.5648 H6            1 RES     
   24208 H6         775.7122  -650.8257  -556.6480 H6            1 RES     
   24209 H6         775.4517  -649.4902  -554.5635 H6            1 RES     
   24210 H6         774.5305  -648.2111  -555.4248 H6            1 RES     
   24211 H6         773.0946  -649.6684  -554.0665 H6            1 RES     
   24212 H6         773.5673  -651.1085  -555.0447 H6            1 RES     
   24213 H6         772.5418  -649.9911  -557.0847 H6            1 RES     
   24214 H6         771.3583  -650.1202  -555.7392 H6            1 RES     
   24215 H6         772.1564  -648.5401  -556.0755 H6            1 RES     
   24216 C0         788.3288  -642.1824  -568.9356 C0            1 RES     
   24217 C1         787.7915  -642.1782  -567.4875 C1            1 RES     
   24218 C1         788.5811  -641.4626  -566.6450 C1            1 RES     
   24219 S2         788.0773  -641.5141  -565.0493 S2            1 RES     
   24220 C1         786.7822  -642.5507  -565.4221 C1            1 RES     
   24221 C1         786.7681  -642.8420  -566.7906 C1            1 RES     
   24222 C1         789.6855  -640.9645  -567.3694 C1            1 RES     
   24223 C1         789.6244  -641.4218  -568.6492 C1            1 RES     
   24224 C1         790.7559  -641.0884  -569.3840 C1            1 RES     
   24225 C1         791.6463  -640.3309  -568.6046 C1            1 RES     
   24226 S2         791.0588  -640.0896  -567.0298 S2            1 RES     
   24227 H3         786.0699  -643.5417  -567.2092 H3            1 RES     
   24228 H3         790.9273  -641.3787  -570.4136 H3            1 RES     
   24229 N4         794.5501  -638.1303  -569.4856 N4            1 RES     
   24230 C1         793.2861  -638.5264  -569.1546 C1            1 RES     
   24231 C1         792.9785  -639.8895  -569.0024 C1            1 RES     
   24232 C1         794.0049  -640.8196  -569.1764 C1            1 RES     
   24233 N4         793.8563  -642.1579  -569.0027 N4            1 RES     
   24234 S2         795.3868  -642.7190  -569.2755 S2            1 RES     
   24235 N4         796.2550  -641.3510  -569.6119 N4            1 RES     
   24236 C1         795.3135  -640.3815  -569.5005 C1            1 RES     
   24237 C1         795.5644  -639.0220  -569.6666 C1            1 RES     
   24238 H5         792.5118  -637.7765  -569.0176 H5            1 RES     
   24239 C0         787.5411  -641.4169  -570.0565 C0            1 RES     
   24240 C0         787.3686  -639.8711  -570.3068 C0            1 RES     
   24241 C0         786.3636  -639.7610  -571.5069 C0            1 RES     
   24242 C0         786.0576  -638.3508  -572.0266 C0            1 RES     
   24243 C0         785.0188  -638.3606  -573.1727 C0            1 RES     
   24244 C0         785.4405  -639.1090  -574.4565 C0            1 RES     
   24245 C0         786.7695  -638.6388  -575.0736 C0            1 RES     
   24246 C0         786.7770  -637.1389  -575.4185 C0            1 RES     
   24247 C0         788.1228  -636.6606  -575.9820 C0            1 RES     
   24248 C0         788.4487  -637.2583  -577.3612 C0            1 RES     
   24249 C0         789.7404  -636.6857  -577.9661 C0            1 RES     
   24250 C0         790.9936  -637.0578  -577.1728 C0            1 RES     
   24251 C0         786.9691  -638.9358  -569.1190 C0            1 RES     
   24252 C0         785.5731  -639.1118  -568.4461 C0            1 RES     
   24253 C0         785.7746  -639.4248  -566.9604 C0            1 RES     
   24254 C0         784.5810  -639.9552  -566.1713 C0            1 RES     
   24255 C0         783.5637  -638.9231  -565.7071 C0            1 RES     
   24256 C0         782.4794  -639.6636  -564.8965 C0            1 RES     
   24257 C0         781.4794  -638.7423  -564.1941 C0            1 RES     
   24258 C0         782.1242  -637.9431  -563.0597 C0            1 RES     
   24259 H6         786.5471  -641.7841  -570.0251 H6            1 RES     
   24260 H6         787.9987  -641.7767  -571.0056 H6            1 RES     
   24261 H6         788.3598  -639.4911  -570.6411 H6            1 RES     
   24262 H6         785.3936  -640.2202  -571.2159 H6            1 RES     
   24263 H6         786.7766  -640.3555  -572.3497 H6            1 RES     
   24264 H6         786.9938  -637.8527  -572.3512 H6            1 RES     
   24265 H6         785.6085  -637.7503  -571.2100 H6            1 RES     
   24266 H6         784.7824  -637.3082  -573.4329 H6            1 RES     
   24267 H6         784.0716  -638.8144  -572.8056 H6            1 RES     
   24268 H6         784.6294  -638.9872  -575.2086 H6            1 RES     
   24269 H6         785.5223  -640.1968  -574.2460 H6            1 RES     
   24270 H6         787.5988  -638.8595  -574.3688 H6            1 RES     
   24271 H6         786.9371  -639.2389  -575.9919 H6            1 RES     
   24272 H6         786.6066  -636.5571  -574.4899 H6            1 RES     
   24273 H6         785.9587  -636.9033  -576.1338 H6            1 RES     
   24274 H6         788.0679  -635.5552  -576.0884 H6            1 RES     
   24275 H6         788.9192  -636.9003  -575.2465 H6            1 RES     
   24276 H6         788.5395  -638.3629  -577.3045 H6            1 RES     
   24277 H6         787.6131  -637.0099  -578.0513 H6            1 RES     
   24278 H6         789.6625  -635.5792  -578.0433 H6            1 RES     
   24279 H6         789.8525  -637.0963  -578.9927 H6            1 RES     
   24280 H6         790.9670  -636.6301  -576.1503 H6            1 RES     
   24281 H6         791.0918  -638.1623  -577.1079 H6            1 RES     
   24282 H6         791.8888  -636.6513  -577.6883 H6            1 RES     
   24283 H6         787.0170  -637.8882  -569.4860 H6            1 RES     
   24284 H6         787.7856  -638.9630  -568.3659 H6            1 RES     
   24285 H6         784.9753  -638.1762  -568.5261 H6            1 RES     
   24286 H6         785.0093  -639.9258  -568.9454 H6            1 RES     
   24287 H6         786.2851  -638.5992  -566.4211 H6            1 RES     
   24288 H6         786.4428  -640.2594  -566.9745 H6            1 RES     
   24289 H6         784.0995  -640.7516  -566.7440 H6            1 RES     
   24290 H6         784.9972  -640.4205  -565.2490 H6            1 RES     
   24291 H6         784.1051  -638.1926  -565.0692 H6            1 RES     
   24292 H6         783.1053  -638.3895  -566.5664 H6            1 RES     
   24293 H6         781.9244  -640.3306  -565.5945 H6            1 RES     
   24294 H6         782.9474  -640.3081  -564.1179 H6            1 RES     
   24295 H6         780.6907  -639.3828  -563.7413 H6            1 RES     
   24296 H6         781.0005  -638.0617  -564.9291 H6            1 RES     
   24297 H6         782.8983  -637.2483  -563.4408 H6            1 RES     
   24298 H6         781.3479  -637.3458  -562.5397 H6            1 RES     
   24299 H6         782.5883  -638.6340  -562.3208 H6            1 RES     
   24300 C0         788.5419  -643.7067  -569.2913 C0            1 RES     
   24301 C0         787.7048  -644.5367  -570.3667 C0            1 RES     
   24302 C0         787.8731  -646.0469  -569.9884 C0            1 RES     
   24303 C0         787.3723  -647.0572  -571.0403 C0            1 RES     
   24304 C0         787.5355  -648.5277  -570.6170 C0            1 RES     
   24305 C0         788.9773  -648.9859  -570.3340 C0            1 RES     
   24306 C0         789.9811  -648.7236  -571.4690 C0            1 RES     
   24307 C0         789.5797  -649.3750  -572.8041 C0            1 RES     
   24308 C0         790.5905  -649.0992  -573.9291 C0            1 RES     
   24309 C0         791.9557  -649.7667  -573.6844 C0            1 RES     
   24310 C0         792.9264  -649.5978  -574.8636 C0            1 RES     
   24311 C0         793.3417  -648.1456  -575.1000 C0            1 RES     
   24312 C0         786.2152  -644.2202  -570.8115 C0            1 RES     
   24313 C0         785.0114  -644.3987  -569.8436 C0            1 RES     
   24314 C0         784.4511  -643.0525  -569.3506 C0            1 RES     
   24315 C0         783.3107  -643.1156  -568.3479 C0            1 RES     
   24316 C0         781.9490  -643.5432  -568.8768 C0            1 RES     
   24317 C0         780.9392  -643.3599  -567.7254 C0            1 RES     
   24318 C0         779.4796  -643.5964  -568.1176 C0            1 RES     
   24319 C0         778.9572  -642.5301  -569.0816 C0            1 RES     
   24320 H6         788.5633  -644.2814  -568.3361 H6            1 RES     
   24321 H6         789.5993  -643.8235  -569.6205 H6            1 RES     
   24322 H6         788.2615  -644.3702  -571.3177 H6            1 RES     
   24323 H6         787.3441  -646.2424  -569.0307 H6            1 RES     
   24324 H6         788.9558  -646.2370  -569.8256 H6            1 RES     
   24325 H6         787.8945  -646.8744  -572.0028 H6            1 RES     
   24326 H6         786.2838  -646.9358  -571.2027 H6            1 RES     
   24327 H6         787.1084  -649.1609  -571.4239 H6            1 RES     
   24328 H6         786.9265  -648.7156  -569.7055 H6            1 RES     
   24329 H6         788.9510  -650.0758  -570.1145 H6            1 RES     
   24330 H6         789.3505  -648.4775  -569.4195 H6            1 RES     
   24331 H6         790.0973  -647.6287  -571.6166 H6            1 RES     
   24332 H6         790.9576  -649.1249  -571.1290 H6            1 RES     
   24333 H6         788.6096  -648.9484  -573.1344 H6            1 RES     
   24334 H6         789.4515  -650.4715  -572.6748 H6            1 RES     
   24335 H6         790.1669  -649.5121  -574.8705 H6            1 RES     
   24336 H6         790.7013  -648.0007  -574.0499 H6            1 RES     
   24337 H6         792.4372  -649.3647  -572.7692 H6            1 RES     
   24338 H6         791.7865  -650.8563  -573.5412 H6            1 RES     
   24339 H6         792.4703  -650.0114  -575.7892 H6            1 RES     
   24340 H6         793.8443  -650.1827  -574.6392 H6            1 RES     
   24341 H6         792.4724  -647.5180  -575.3819 H6            1 RES     
   24342 H6         793.8176  -647.7289  -574.1868 H6            1 RES     
   24343 H6         794.0760  -648.1055  -575.9319 H6            1 RES     
   24344 H6         786.0210  -644.9150  -571.6491 H6            1 RES     
   24345 H6         786.1230  -643.2831  -571.3922 H6            1 RES     
   24346 H6         784.1753  -644.8484  -570.4232 H6            1 RES     
   24347 H6         785.2626  -645.1013  -569.0233 H6            1 RES     
   24348 H6         784.1584  -642.4170  -570.2170 H6            1 RES     
   24349 H6         785.2132  -642.5220  -568.7907 H6            1 RES     
   24350 H6         783.6125  -643.7271  -567.4699 H6            1 RES     
   24351 H6         783.1606  -642.0716  -568.0269 H6            1 RES     
   24352 H6         781.6932  -642.8796  -569.7297 H6            1 RES     
   24353 H6         781.9661  -644.5970  -569.2250 H6            1 RES     
   24354 H6         781.2115  -644.0686  -566.9125 H6            1 RES     
   24355 H6         781.0105  -642.3284  -567.3096 H6            1 RES     
   24356 H6         778.8728  -643.5309  -567.1879 H6            1 RES     
   24357 H6         779.3596  -644.6098  -568.5492 H6            1 RES     
   24358 H6         779.4921  -642.5635  -570.0515 H6            1 RES     
   24359 H6         777.8790  -642.7067  -569.2736 H6            1 RES     
   24360 H6         779.0735  -641.5178  -568.6359 H6            1 RES     
   24361 C0         799.9656  -637.5041  -572.4780 C0            1 RES     
   24362 C1         798.9187  -637.8044  -571.3828 C1            1 RES     
   24363 C1         799.4514  -637.7668  -570.1338 C1            1 RES     
   24364 S2         798.3643  -638.1784  -568.9292 S2            1 RES     
   24365 C1         797.1247  -638.4705  -570.0557 C1            1 RES     
   24366 C1         797.5845  -638.2438  -571.3576 C1            1 RES     
   24367 C1         800.8320  -637.4906  -570.2361 C1            1 RES     
   24368 C1         801.1784  -637.4208  -571.5499 C1            1 RES     
   24369 C1         802.5506  -637.2933  -571.7285 C1            1 RES     
   24370 C1         803.2076  -637.2346  -570.4878 C1            1 RES     
   24371 S2         802.1185  -637.3554  -569.1906 S2            1 RES     
   24372 H3         796.9705  -638.4477  -572.2141 H3            1 RES     
   24373 H3         803.0433  -637.2509  -572.6925 H3            1 RES     
   24374 N4         806.6330  -636.0928  -569.4814 N4            1 RES     
   24375 C1         805.2870  -636.0864  -569.7101 C1            1 RES     
   24376 C1         804.6507  -637.2038  -570.2778 C1            1 RES     
   24377 C1         805.4292  -638.3231  -570.5776 C1            1 RES     
   24378 N4         804.9318  -639.4848  -571.0740 N4            1 RES     
   24379 S2         806.2809  -640.4359  -571.1588 S2            1 RES     
   24380 N4         807.4911  -639.4559  -570.5989 N4            1 RES     
   24381 C1         806.8216  -638.3120  -570.3123 C1            1 RES     
   24382 C1         807.4120  -637.1721  -569.7730 C1            1 RES     
   24383 H5         804.7082  -635.2023  -569.4572 H5            1 RES     
   24384 C0         799.8718  -636.1667  -573.2937 C0            1 RES     
   24385 C0         800.1585  -634.6816  -572.8530 C0            1 RES     
   24386 C0         799.7566  -633.8034  -574.0897 C0            1 RES     
   24387 C0         799.9998  -632.2934  -573.9750 C0            1 RES     
   24388 C0         799.5200  -631.5251  -575.2289 C0            1 RES     
   24389 C0         800.2344  -631.8821  -576.5510 C0            1 RES     
   24390 C0         801.7671  -631.7495  -576.5156 C0            1 RES     
   24391 C0         802.2414  -630.3373  -576.1291 C0            1 RES     
   24392 C0         803.7699  -630.2224  -576.0399 C0            1 RES     
   24393 C0         804.4696  -630.3812  -577.4003 C0            1 RES     
   24394 C0         805.9869  -630.1507  -577.3180 C0            1 RES     
   24395 C0         806.7120  -631.2055  -576.4814 C0            1 RES     
   24396 C0         799.5431  -634.1380  -571.5223 C0            1 RES     
   24397 C0         797.9938  -634.0113  -571.3946 C0            1 RES     
   24398 C0         797.5214  -634.8692  -570.2169 C0            1 RES     
   24399 C0         796.0286  -635.1629  -570.0975 C0            1 RES     
   24400 C0         795.1670  -634.0591  -569.5018 C0            1 RES     
   24401 C0         793.7169  -634.5819  -569.4303 C0            1 RES     
   24402 C0         792.7526  -633.6625  -568.6772 C0            1 RES     
   24403 C0         793.0602  -633.6005  -567.1796 C0            1 RES     
   24404 H6         798.8908  -636.1307  -573.6938 H6            1 RES     
   24405 H6         800.5730  -636.3170  -574.1454 H6            1 RES     
   24406 H6         801.2587  -634.6009  -572.7060 H6            1 RES     
   24407 H6         798.6747  -633.9454  -574.3040 H6            1 RES     
   24408 H6         800.3242  -634.1769  -574.9688 H6            1 RES     
   24409 H6         801.0732  -632.0939  -573.7807 H6            1 RES     
   24410 H6         799.4114  -631.8925  -573.1251 H6            1 RES     
   24411 H6         799.6441  -630.4393  -575.0365 H6            1 RES     
   24412 H6         798.4298  -631.6970  -575.3697 H6            1 RES     
   24413 H6         799.8323  -631.2197  -577.3498 H6            1 RES     
   24414 H6         799.9838  -632.9246  -576.8423 H6            1 RES     
   24415 H6         802.1819  -632.4876  -575.7972 H6            1 RES     
   24416 H6         802.1441  -632.0118  -577.5259 H6            1 RES     
   24417 H6         801.8538  -630.0933  -575.1190 H6            1 RES     
   24418 H6         801.8437  -629.5867  -576.8468 H6            1 RES     
   24419 H6         804.0075  -629.2106  -575.6448 H6            1 RES     
   24420 H6         804.1392  -630.9755  -575.3125 H6            1 RES     
   24421 H6         804.2837  -631.3882  -577.8279 H6            1 RES     
   24422 H6         804.0494  -629.6219  -578.0954 H6            1 RES     
   24423 H6         806.1928  -629.1396  -576.9036 H6            1 RES     
   24424 H6         806.3989  -630.1914  -578.3494 H6            1 RES     
   24425 H6         806.3818  -631.1798  -575.4234 H6            1 RES     
   24426 H6         806.5295  -632.2180  -576.9000 H6            1 RES     
   24427 H6         807.8035  -631.0041  -576.5020 H6            1 RES     
   24428 H6         799.9618  -633.1237  -571.3486 H6            1 RES     
   24429 H6         799.9704  -634.7211  -570.6785 H6            1 RES     
   24430 H6         797.6987  -632.9564  -571.1963 H6            1 RES     
   24431 H6         797.5060  -634.3352  -572.3364 H6            1 RES     
   24432 H6         797.9484  -634.5294  -569.2499 H6            1 RES     
   24433 H6         797.9385  -635.8301  -570.4313 H6            1 RES     
   24434 H6         795.6470  -635.4765  -571.0723 H6            1 RES     
   24435 H6         795.9352  -636.0363  -569.4127 H6            1 RES     
   24436 H6         795.5618  -633.8470  -568.4856 H6            1 RES     
   24437 H6         795.2131  -633.1331  -570.1130 H6            1 RES     
   24438 H6         793.3475  -634.7134  -570.4726 H6            1 RES     
   24439 H6         793.6864  -635.5793  -568.9355 H6            1 RES     
   24440 H6         791.7290  -634.0834  -568.7879 H6            1 RES     
   24441 H6         792.7643  -632.6450  -569.1214 H6            1 RES     
   24442 H6         794.0548  -633.1522  -566.9870 H6            1 RES     
   24443 H6         792.2955  -632.9800  -566.6698 H6            1 RES     
   24444 H6         793.0316  -634.6229  -566.7406 H6            1 RES     
   24445 C0         799.9577  -638.7760  -573.4149 C0            1 RES     
   24446 C0         799.4485  -638.8145  -574.9266 C0            1 RES     
   24447 C0         799.1157  -640.3116  -575.2433 C0            1 RES     
   24448 C0         798.8575  -640.6371  -576.7283 C0            1 RES     
   24449 C0         798.5113  -642.1135  -576.9900 C0            1 RES     
   24450 C0         799.5859  -643.1354  -576.5778 C0            1 RES     
   24451 C0         800.9854  -642.8842  -577.1632 C0            1 RES     
   24452 C0         801.0067  -642.8382  -578.7012 C0            1 RES     
   24453 C0         802.4115  -642.5813  -579.2701 C0            1 RES     
   24454 C0         803.3864  -643.7426  -579.0054 C0            1 RES     
   24455 C0         804.7530  -643.5446  -579.6794 C0            1 RES     
   24456 C0         805.5383  -642.3606  -579.1149 C0            1 RES     
   24457 C0         798.3633  -637.8415  -575.5534 C0            1 RES     
   24458 C0         796.8693  -637.8894  -575.1249 C0            1 RES     
   24459 C0         796.4739  -636.6917  -574.2427 C0            1 RES     
   24460 C0         795.0485  -636.6751  -573.7157 C0            1 RES     
   24461 C0         793.9456  -636.3627  -574.7173 C0            1 RES     
   24462 C0         792.6330  -636.2326  -573.9179 C0            1 RES     
   24463 C0         791.4315  -635.7665  -574.7421 C0            1 RES     
   24464 C0         791.5796  -634.3207  -575.2184 C0            1 RES     
   24465 H6         799.4746  -639.6106  -572.8552 H6            1 RES     
   24466 H6         801.0049  -639.1504  -573.4710 H6            1 RES     
   24467 H6         800.3555  -638.5458  -575.5159 H6            1 RES     
   24468 H6         798.2243  -640.6177  -574.6542 H6            1 RES     
   24469 H6         799.9763  -640.9287  -574.9065 H6            1 RES     
   24470 H6         799.7419  -640.3377  -577.3290 H6            1 RES     
   24471 H6         797.9764  -640.0773  -577.0974 H6            1 RES     
   24472 H6         798.3064  -642.2250  -578.0762 H6            1 RES     
   24473 H6         797.5683  -642.3679  -576.4578 H6            1 RES     
   24474 H6         799.2348  -644.1431  -576.8907 H6            1 RES     
   24475 H6         799.6729  -643.1492  -575.4704 H6            1 RES     
   24476 H6         801.3897  -641.9298  -576.7632 H6            1 RES     
   24477 H6         801.6349  -643.7061  -576.7988 H6            1 RES     
   24478 H6         800.3647  -642.0001  -579.0442 H6            1 RES     
   24479 H6         800.5985  -643.7831  -579.1207 H6            1 RES     
   24480 H6         802.3113  -642.4572  -580.3704 H6            1 RES     
   24481 H6         802.8013  -641.6311  -578.8470 H6            1 RES     
   24482 H6         803.5461  -643.8882  -577.9171 H6            1 RES     
   24483 H6         802.9377  -644.6714  -579.4207 H6            1 RES     
   24484 H6         804.6175  -643.4148  -580.7751 H6            1 RES     
   24485 H6         805.3548  -644.4638  -579.5119 H6            1 RES     
   24486 H6         805.0119  -641.4025  -579.2993 H6            1 RES     
   24487 H6         805.6971  -642.4907  -578.0232 H6            1 RES     
   24488 H6         806.5291  -642.3074  -579.6132 H6            1 RES     
   24489 H6         798.3647  -638.0810  -576.6326 H6            1 RES     
   24490 H6         798.7164  -636.7975  -575.6485 H6            1 RES     
   24491 H6         796.2507  -637.7712  -576.0418 H6            1 RES     
   24492 H6         796.6160  -638.8719  -574.6777 H6            1 RES     
   24493 H6         796.6934  -635.7358  -574.7704 H6            1 RES     
   24494 H6         797.0521  -636.7062  -573.3255 H6            1 RES     
   24495 H6         794.8379  -637.6175  -573.1649 H6            1 RES     
   24496 H6         795.0199  -635.8292  -573.0093 H6            1 RES     
   24497 H6         794.1989  -635.4009  -575.2112 H6            1 RES     
   24498 H6         793.8641  -637.1589  -575.4864 H6            1 RES     
   24499 H6         792.4001  -637.2256  -573.4742 H6            1 RES     
   24500 H6         792.7620  -635.5113  -573.0781 H6            1 RES     
   24501 H6         790.5395  -635.8090  -574.0792 H6            1 RES     
   24502 H6         791.2691  -636.4487  -575.5999 H6            1 RES     
   24503 H6         792.4303  -634.2101  -575.9198 H6            1 RES     
   24504 H6         790.6533  -634.0118  -575.7448 H6            1 RES     
   24505 H6         791.7328  -633.6429  -574.3500 H6            1 RES     
   24506 C0         812.7804  -636.5012  -570.3279 C0            1 RES     
   24507 C1         811.3496  -636.7558  -569.8049 C1            1 RES     
   24508 C1         811.3435  -637.3503  -568.5836 C1            1 RES     
   24509 S2         809.8090  -637.7241  -568.0283 S2            1 RES     
   24510 C1         809.0798  -637.1328  -569.4458 C1            1 RES     
   24511 C1         810.0513  -636.6553  -570.3322 C1            1 RES     
   24512 C1         812.6773  -637.5822  -568.1837 C1            1 RES     
   24513 C1         813.5174  -637.1945  -569.1810 C1            1 RES     
   24514 C1         814.8408  -637.5253  -568.9155 C1            1 RES     
   24515 C1         814.9535  -638.1442  -567.6591 C1            1 RES     
   24516 S2         813.4455  -638.2982  -566.8938 S2            1 RES     
   24517 H3         809.7940  -636.3103  -571.3157 H3            1 RES     
   24518 H3         815.6683  -637.3359  -569.5887 H3            1 RES     
   24519 N4         817.8695  -638.7609  -565.3861 N4            1 RES     
   24520 C1         816.7591  -638.1831  -565.9313 C1            1 RES     
   24521 C1         816.1661  -638.7190  -567.0876 C1            1 RES     
   24522 C1         816.7308  -639.8675  -567.6452 C1            1 RES     
   24523 N4         816.2242  -640.5172  -568.7244 N4            1 RES     
   24524 S2         817.2511  -641.8037  -568.8731 S2            1 RES     
   24525 N4         818.3289  -641.5940  -567.6350 N4            1 RES     
   24526 C1         817.8722  -640.4597  -567.0489 C1            1 RES     
   24527 C1         818.4402  -639.8778  -565.9186 C1            1 RES     
   24528 H5         816.3389  -637.2948  -565.4675 H5            1 RES     
   24529 C0         813.3131  -635.0295  -570.4428 C0            1 RES     
   24530 C0         813.7251  -634.0041  -569.3200 C0            1 RES     
   24531 C0         814.0462  -632.6705  -570.0822 C0            1 RES     
   24532 C0         814.5528  -631.4949  -569.2375 C0            1 RES     
   24533 C0         814.7867  -630.2219  -570.0845 C0            1 RES     
   24534 C0         815.8641  -630.3349  -571.1856 C0            1 RES     
   24535 C0         817.2479  -630.7941  -570.6932 C0            1 RES     
   24536 C0         817.8326  -629.8816  -569.6005 C0            1 RES     
   24537 C0         819.1876  -630.3731  -569.0714 C0            1 RES     
   24538 C0         820.3108  -630.2963  -570.1193 C0            1 RES     
   24539 C0         821.6841  -630.6815  -569.5467 C0            1 RES     
   24540 C0         821.7694  -632.1476  -569.1207 C0            1 RES     
   24541 C0         812.7740  -633.7691  -568.1013 C0            1 RES     
   24542 C0         811.3689  -633.1362  -568.3416 C0            1 RES     
   24543 C0         810.2950  -634.1114  -567.8499 C0            1 RES     
   24544 C0         808.8505  -633.8595  -568.2726 C0            1 RES     
   24545 C0         808.0921  -632.7963  -567.4915 C0            1 RES     
   24546 C0         806.6537  -632.7414  -568.0475 C0            1 RES     
   24547 C0         805.7010  -631.8543  -567.2427 C0            1 RES     
   24548 C0         805.4018  -632.4313  -565.8574 C0            1 RES     
   24549 H6         812.6023  -634.5006  -571.0248 H6            1 RES     
   24550 H6         814.2400  -635.1218  -571.0527 H6            1 RES     
   24551 H6         814.6675  -634.3883  -568.8696 H6            1 RES     
   24552 H6         813.1330  -632.3228  -570.6129 H6            1 RES     
   24553 H6         814.8151  -632.8972  -570.8515 H6            1 RES     
   24554 H6         815.4791  -631.7831  -568.7000 H6            1 RES     
   24555 H6         813.7829  -631.2269  -568.4861 H6            1 RES     
   24556 H6         815.0626  -629.3960  -569.3968 H6            1 RES     
   24557 H6         813.8307  -629.9223  -570.5683 H6            1 RES     
   24558 H6         815.9654  -629.3392  -571.6722 H6            1 RES     
   24559 H6         815.5238  -631.0429  -571.9712 H6            1 RES     
   24560 H6         817.1728  -631.8321  -570.3060 H6            1 RES     
   24561 H6         817.9228  -630.8095  -571.5741 H6            1 RES     
   24562 H6         817.1443  -629.8781  -568.7308 H6            1 RES     
   24563 H6         817.9254  -628.8393  -569.9769 H6            1 RES     
   24564 H6         819.4688  -629.7227  -568.2146 H6            1 RES     
   24565 H6         819.0649  -631.4105  -568.6953 H6            1 RES     
   24566 H6         820.0895  -630.9503  -570.9881 H6            1 RES     
   24567 H6         820.3767  -629.2461  -570.4785 H6            1 RES     
   24568 H6         821.9293  -630.0267  -568.6821 H6            1 RES     
   24569 H6         822.4476  -630.5110  -570.3362 H6            1 RES     
   24570 H6         821.0652  -632.3702  -568.2939 H6            1 RES     
   24571 H6         821.5465  -632.8107  -569.9835 H6            1 RES     
   24572 H6         822.7966  -632.3664  -568.7608 H6            1 RES     
   24573 H6         813.3044  -633.1064  -567.3845 H6            1 RES     
   24574 H6         812.6952  -634.7211  -567.5338 H6            1 RES     
   24575 H6         811.2614  -632.1854  -567.7727 H6            1 RES     
   24576 H6         811.2312  -632.9117  -569.4188 H6            1 RES     
   24577 H6         810.3720  -634.3087  -566.7599 H6            1 RES     
   24578 H6         810.5386  -635.0202  -568.3579 H6            1 RES     
   24579 H6         808.8228  -633.6536  -569.3454 H6            1 RES     
   24580 H6         808.3049  -634.8165  -568.1085 H6            1 RES     
   24581 H6         808.0928  -633.1091  -566.4258 H6            1 RES     
   24582 H6         808.5783  -631.8020  -567.5815 H6            1 RES     
   24583 H6         806.7037  -632.3592  -569.0924 H6            1 RES     
   24584 H6         806.2113  -633.7629  -568.0850 H6            1 RES     
   24585 H6         804.7375  -631.8046  -567.7960 H6            1 RES     
   24586 H6         806.1112  -630.8260  -567.1579 H6            1 RES     
   24587 H6         806.3134  -632.4750  -565.2296 H6            1 RES     
   24588 H6         804.6566  -631.7914  -565.3428 H6            1 RES     
   24589 H6         804.9774  -633.4557  -565.9533 H6            1 RES     
   24590 C0         812.8592  -637.2732  -571.7040 C0            1 RES     
   24591 C0         812.9893  -636.5971  -573.1435 C0            1 RES     
   24592 C0         812.4848  -637.6590  -574.1780 C0            1 RES     
   24593 C0         812.7648  -637.3321  -575.6588 C0            1 RES     
   24594 C0         812.2313  -638.3902  -576.6407 C0            1 RES     
   24595 C0         812.8025  -639.8092  -576.4697 C0            1 RES     
   24596 C0         814.3373  -639.9025  -576.4878 C0            1 RES     
   24597 C0         814.9699  -639.3388  -577.7723 C0            1 RES     
   24598 C0         816.5042  -639.4349  -577.7724 C0            1 RES     
   24599 C0         817.0133  -640.8867  -577.8164 C0            1 RES     
   24600 C0         818.5417  -640.9833  -577.9428 C0            1 RES     
   24601 C0         819.2836  -640.4434  -576.7200 C0            1 RES     
   24602 C0         812.4820  -635.1424  -573.5222 C0            1 RES     
   24603 C0         810.9695  -634.7845  -573.5706 C0            1 RES     
   24604 C0         810.5358  -633.9101  -572.3805 C0            1 RES     
   24605 C0         809.0602  -633.5557  -572.2978 C0            1 RES     
   24606 C0         808.5378  -632.5355  -573.2996 C0            1 RES     
   24607 C0         807.0812  -632.2186  -572.9036 C0            1 RES     
   24608 C0         806.4352  -631.0908  -573.7105 C0            1 RES     
   24609 C0         807.0747  -629.7315  -573.4235 C0            1 RES     
   24610 H6         812.0235  -638.0106  -571.7312 H6            1 RES     
   24611 H6         813.7331  -637.9609  -571.6464 H6            1 RES     
   24612 H6         814.0897  -636.4936  -573.2862 H6            1 RES     
   24613 H6         811.3900  -637.8006  -574.0482 H6            1 RES     
   24614 H6         812.9841  -638.6238  -573.9444 H6            1 RES     
   24615 H6         813.8564  -637.1898  -575.8033 H6            1 RES     
   24616 H6         812.2471  -636.3981  -575.9513 H6            1 RES     
   24617 H6         812.4499  -638.0359  -577.6707 H6            1 RES     
   24618 H6         811.1244  -638.4485  -576.5495 H6            1 RES     
   24619 H6         812.3886  -640.4429  -577.2844 H6            1 RES     
   24620 H6         812.4426  -640.2358  -575.5092 H6            1 RES     
   24621 H6         814.7526  -639.3645  -575.6090 H6            1 RES     
   24622 H6         814.5920  -640.9764  -576.3787 H6            1 RES     
   24623 H6         814.7171  -638.2610  -577.8539 H6            1 RES     
   24624 H6         814.5607  -639.8605  -578.6645 H6            1 RES     
   24625 H6         816.8739  -638.9105  -578.6804 H6            1 RES     
   24626 H6         816.8966  -638.9031  -576.8797 H6            1 RES     
   24627 H6         816.6967  -641.4473  -576.9129 H6            1 RES     
   24628 H6         816.5699  -641.3810  -578.7083 H6            1 RES     
   24629 H6         818.8793  -640.4426  -578.8536 H6            1 RES     
   24630 H6         818.8096  -642.0557  -578.0581 H6            1 RES     
   24631 H6         819.0982  -639.3591  -576.5818 H6            1 RES     
   24632 H6         818.9681  -640.9914  -575.8067 H6            1 RES     
   24633 H6         820.3754  -640.5881  -576.8607 H6            1 RES     
   24634 H6         812.8537  -634.9766  -574.5500 H6            1 RES     
   24635 H6         813.0659  -634.3370  -573.0383 H6            1 RES     
   24636 H6         810.8033  -634.1388  -574.4609 H6            1 RES     
   24637 H6         810.3503  -635.6951  -573.7004 H6            1 RES     
   24638 H6         811.1505  -632.9823  -572.3403 H6            1 RES     
   24639 H6         810.6889  -634.4515  -571.4537 H6            1 RES     
   24640 H6         808.4473  -634.4831  -572.3099 H6            1 RES     
   24641 H6         808.9448  -633.0588  -571.3205 H6            1 RES     
   24642 H6         809.1708  -631.6267  -573.2189 H6            1 RES     
   24643 H6         808.5904  -632.9275  -574.3366 H6            1 RES     
   24644 H6         806.4792  -633.1445  -573.0358 H6            1 RES     
   24645 H6         807.0266  -631.9332  -571.8277 H6            1 RES     
   24646 H6         805.3694  -631.0300  -573.3987 H6            1 RES     
   24647 H6         806.4757  -631.3241  -574.7929 H6            1 RES     
   24648 H6         808.1338  -629.7051  -573.7482 H6            1 RES     
   24649 H6         806.5227  -628.9433  -573.9755 H6            1 RES     
   24650 H6         807.0209  -629.5024  -572.3365 H6            1 RES     
   24651 C0         823.5991  -641.0731  -564.6796 C0            1 RES     
   24652 C1         822.0601  -640.9497  -564.7244 C1            1 RES     
   24653 C1         821.4437  -641.8833  -563.9540 C1            1 RES     
   24654 S2         819.7732  -641.8360  -564.0524 S2            1 RES     
   24655 C1         819.8094  -640.5680  -565.1844 C1            1 RES     
   24656 C1         821.1303  -640.2049  -565.4690 C1            1 RES     
   24657 C1         822.4262  -642.7105  -563.3681 C1            1 RES     
   24658 C1         823.6534  -642.3385  -563.8223 C1            1 RES     
   24659 C1         824.6574  -643.2010  -563.3986 C1            1 RES     
   24660 C1         824.1278  -644.2113  -562.5781 C1            1 RES     
   24661 S2         822.4472  -644.0565  -562.3910 S2            1 RES     
   24662 H3         821.3629  -639.4726  -566.2186 H3            1 RES     
   24663 H3         825.7022  -643.1077  -563.6695 H3            1 RES     
   24664 N4         825.7025  -646.5982  -560.1547 N4            1 RES     
   24665 C1         825.0532  -645.5038  -560.6493 C1            1 RES     
   24666 C1         824.8588  -645.3497  -562.0328 C1            1 RES     
   24667 C1         825.3273  -646.3559  -562.8796 C1            1 RES     
   24668 N4         825.1545  -646.3584  -564.2263 N4            1 RES     
   24669 S2         825.8446  -647.7945  -564.6656 S2            1 RES     
   24670 N4         826.3673  -648.4364  -563.2327 N4            1 RES     
   24671 C1         825.9810  -647.4919  -562.3398 C1            1 RES     
   24672 C1         826.1735  -647.5880  -560.9641 C1            1 RES     
   24673 H5         824.6929  -644.7429  -559.9623 H5            1 RES     
   24674 C0         824.4457  -639.9572  -563.9719 C0            1 RES     
   24675 C0         824.6002  -639.6106  -562.4429 C0            1 RES     
   24676 C0         825.4814  -638.3127  -562.4051 C0            1 RES     
   24677 C0         825.8627  -637.7748  -561.0203 C0            1 RES     
   24678 C0         826.6859  -636.4679  -561.1049 C0            1 RES     
   24679 C0         828.0547  -636.5796  -561.8119 C0            1 RES     
   24680 C0         828.9951  -637.6534  -561.2369 C0            1 RES     
   24681 C0         829.2904  -637.4572  -559.7393 C0            1 RES     
   24682 C0         830.1836  -638.5612  -559.1553 C0            1 RES     
   24683 C0         831.6145  -638.5439  -559.7190 C0            1 RES     
   24684 C0         832.5305  -639.5778  -559.0449 C0            1 RES     
   24685 C0         832.1146  -641.0229  -559.3227 C0            1 RES     
   24686 C0         823.3250  -639.4805  -561.5474 C0            1 RES     
   24687 C0         822.3052  -638.3359  -561.8345 C0            1 RES     
   24688 C0         820.9375  -638.9549  -562.1383 C0            1 RES     
   24689 C0         819.8696  -638.0620  -562.7636 C0            1 RES     
   24690 C0         819.1216  -637.1358  -561.8158 C0            1 RES     
   24691 C0         818.0679  -636.3691  -562.6422 C0            1 RES     
   24692 C0         817.0981  -635.5321  -561.8049 C0            1 RES     
   24693 C0         816.1596  -636.3998  -560.9637 C0            1 RES     
   24694 H6         824.1568  -639.0387  -564.4153 H6            1 RES     
   24695 H6         825.4921  -640.1656  -564.2904 H6            1 RES     
   24696 H6         825.1797  -640.4434  -561.9856 H6            1 RES     
   24697 H6         824.9514  -637.4942  -562.9396 H6            1 RES     
   24698 H6         826.4195  -638.5242  -562.9616 H6            1 RES     
   24699 H6         826.4148  -638.5489  -560.4495 H6            1 RES     
   24700 H6         824.9399  -637.5210  -560.4606 H6            1 RES     
   24701 H6         826.8453  -636.0933  -560.0727 H6            1 RES     
   24702 H6         826.0886  -635.6916  -561.6326 H6            1 RES     
   24703 H6         828.5566  -635.5883  -561.7496 H6            1 RES     
   24704 H6         827.9022  -636.7949  -562.8911 H6            1 RES     
   24705 H6         828.5462  -638.6565  -561.3962 H6            1 RES     
   24706 H6         829.9398  -637.6094  -561.8177 H6            1 RES     
   24707 H6         828.3355  -637.5027  -559.1771 H6            1 RES     
   24708 H6         829.7520  -636.4607  -559.5643 H6            1 RES     
   24709 H6         830.2426  -638.3986  -558.0570 H6            1 RES     
   24710 H6         829.6967  -639.5424  -559.3362 H6            1 RES     
   24711 H6         831.6130  -638.7274  -560.8135 H6            1 RES     
   24712 H6         832.0469  -637.5367  -559.5327 H6            1 RES     
   24713 H6         832.5552  -639.4010  -557.9475 H6            1 RES     
   24714 H6         833.5596  -639.4373  -559.4404 H6            1 RES     
   24715 H6         831.1122  -641.2431  -558.9035 H6            1 RES     
   24716 H6         832.1072  -641.2157  -560.4166 H6            1 RES     
   24717 H6         832.8419  -641.7126  -558.8455 H6            1 RES     
   24718 H6         823.6641  -639.3502  -560.4974 H6            1 RES     
   24719 H6         822.8211  -640.4702  -561.5150 H6            1 RES     
   24720 H6         822.1966  -637.6719  -560.9477 H6            1 RES     
   24721 H6         822.6547  -637.7191  -562.6872 H6            1 RES     
   24722 H6         820.5348  -639.5305  -561.2783 H6            1 RES     
   24723 H6         821.1529  -639.6536  -562.9186 H6            1 RES     
   24724 H6         820.3115  -637.5030  -563.5921 H6            1 RES     
   24725 H6         819.1061  -638.7455  -563.1999 H6            1 RES     
   24726 H6         818.6348  -637.7747  -561.0488 H6            1 RES     
   24727 H6         819.8112  -636.4238  -561.3151 H6            1 RES     
   24728 H6         818.6072  -635.6961  -563.3468 H6            1 RES     
   24729 H6         817.4613  -637.0765  -563.2524 H6            1 RES     
   24730 H6         816.4660  -634.9448  -562.5068 H6            1 RES     
   24731 H6         817.6588  -634.8234  -561.1597 H6            1 RES     
   24732 H6         816.7174  -636.9886  -560.2091 H6            1 RES     
   24733 H6         815.4342  -635.7519  -560.4310 H6            1 RES     
   24734 H6         815.5914  -637.0961  -561.6202 H6            1 RES     
   24735 C0         824.0383  -641.2931  -566.1811 C0            1 RES     
   24736 C0         824.8690  -640.2590  -567.0680 C0            1 RES     
   24737 C0         824.5893  -640.6337  -568.5626 C0            1 RES     
   24738 C0         825.4928  -639.9420  -569.6034 C0            1 RES     
   24739 C0         825.1674  -640.3211  -571.0589 C0            1 RES     
   24740 C0         825.2958  -641.8152  -571.4053 C0            1 RES     
   24741 C0         826.6524  -642.4519  -571.0603 C0            1 RES     
   24742 C0         827.8461  -641.7525  -571.7342 C0            1 RES     
   24743 C0         829.1945  -642.3976  -571.3752 C0            1 RES     
   24744 C0         829.3446  -643.8231  -571.9360 C0            1 RES     
   24745 C0         830.7372  -644.4227  -571.6864 C0            1 RES     
   24746 C0         831.0393  -644.6509  -570.2053 C0            1 RES     
   24747 C0         824.8871  -638.6855  -566.8658 C0            1 RES     
   24748 C0         823.6352  -637.8055  -567.1420 C0            1 RES     
   24749 C0         822.9747  -637.3027  -565.8457 C0            1 RES     
   24750 C0         821.7035  -636.4846  -566.0021 C0            1 RES     
   24751 C0         821.8562  -635.0656  -566.5314 C0            1 RES     
   24752 C0         820.4707  -634.3951  -566.4327 C0            1 RES     
   24753 C0         820.4605  -632.9052  -566.7796 C0            1 RES     
   24754 C0         821.2199  -632.0644  -565.7523 C0            1 RES     
   24755 H6         823.1396  -641.6145  -566.7572 H6            1 RES     
   24756 H6         824.6436  -642.2272  -566.2139 H6            1 RES     
   24757 H6         825.9304  -640.5233  -566.8542 H6            1 RES     
   24758 H6         823.5298  -640.3999  -568.8032 H6            1 RES     
   24759 H6         824.7297  -641.7310  -568.6689 H6            1 RES     
   24760 H6         826.5555  -640.1690  -569.3758 H6            1 RES     
   24761 H6         825.3523  -638.8444  -569.5660 H6            1 RES     
   24762 H6         825.8451  -639.7390  -571.7192 H6            1 RES     
   24763 H6         824.1305  -639.9975  -571.2980 H6            1 RES     
   24764 H6         825.1056  -641.9294  -572.4950 H6            1 RES     
   24765 H6         824.5031  -642.3840  -570.8741 H6            1 RES     
   24766 H6         826.7976  -642.4431  -569.9589 H6            1 RES     
   24767 H6         826.5990  -643.5106  -571.3864 H6            1 RES     
   24768 H6         827.8912  -640.7007  -571.3824 H6            1 RES     
   24769 H6         827.7152  -641.7448  -572.8379 H6            1 RES     
   24770 H6         829.9970  -641.7661  -571.8149 H6            1 RES     
   24771 H6         829.3124  -642.3907  -570.2708 H6            1 RES     
   24772 H6         828.5832  -644.5037  -571.5025 H6            1 RES     
   24773 H6         829.1892  -643.7793  -573.0361 H6            1 RES     
   24774 H6         831.5158  -643.7645  -572.1295 H6            1 RES     
   24775 H6         830.7840  -645.4074  -572.1996 H6            1 RES     
   24776 H6         831.0599  -643.6942  -569.6456 H6            1 RES     
   24777 H6         830.2779  -645.3245  -569.7575 H6            1 RES     
   24778 H6         832.0371  -645.1273  -570.1042 H6            1 RES     
   24779 H6         825.6589  -638.3231  -567.5693 H6            1 RES     
   24780 H6         825.3969  -638.3710  -565.9358 H6            1 RES     
   24781 H6         823.9792  -636.8790  -567.6522 H6            1 RES     
   24782 H6         822.9316  -638.3204  -567.8270 H6            1 RES     
   24783 H6         823.7133  -636.7404  -565.2305 H6            1 RES     
   24784 H6         822.6278  -638.1470  -565.2606 H6            1 RES     
   24785 H6         820.9556  -637.0570  -566.5928 H6            1 RES     
   24786 H6         821.3271  -636.3510  -564.9745 H6            1 RES     
   24787 H6         822.5911  -634.5403  -565.8854 H6            1 RES     
   24788 H6         822.2233  -635.0649  -567.5789 H6            1 RES     
   24789 H6         819.7801  -634.9286  -567.1222 H6            1 RES     
   24790 H6         820.0631  -634.5005  -565.4008 H6            1 RES     
   24791 H6         819.4002  -632.5700  -566.7660 H6            1 RES     
   24792 H6         820.8697  -632.7473  -567.7972 H6            1 RES     
   24793 H6         822.2987  -632.3174  -565.7392 H6            1 RES     
   24794 H6         821.1184  -630.9905  -566.0110 H6            1 RES     
   24795 H6         820.7962  -632.2226  -564.7363 H6            1 RES     
   24796 C0         830.0280  -650.9390  -559.0954 C0            1 RES     
   24797 C1         828.6990  -650.2531  -559.4815 C1            1 RES     
   24798 C1         827.6396  -651.1001  -559.4090 C1            1 RES     
   24799 S2         826.1974  -650.4133  -559.9097 S2            1 RES     
   24800 C1         826.9548  -648.9397  -560.2913 C1            1 RES     
   24801 C1         828.3261  -649.0116  -560.0231 C1            1 RES     
   24802 C1         828.1035  -652.3772  -559.0260 C1            1 RES     
   24803 C1         829.4597  -652.3485  -558.9230 C1            1 RES     
   24804 C1         829.9986  -653.6078  -558.6886 C1            1 RES     
   24805 C1         828.9801  -654.5702  -558.5853 C1            1 RES     
   24806 S2         827.4407  -653.8855  -558.7967 S2            1 RES     
   24807 H3         828.9902  -648.2051  -560.2698 H3            1 RES     
   24808 H3         831.0584  -653.8163  -558.6032 H3            1 RES     
   24809 N4         828.9062  -658.0470  -557.1864 N4            1 RES     
   24810 C1         828.7630  -656.6927  -557.2832 C1            1 RES     
   24811 C1         829.1665  -656.0100  -558.4438 C1            1 RES     
   24812 C1         829.6941  -656.7580  -559.4978 C1            1 RES     
   24813 N4         830.0677  -656.2312  -560.6921 N4            1 RES     
   24814 S2         830.5379  -657.5728  -561.5353 S2            1 RES     
   24815 N4         830.3002  -658.8142  -560.4672 N4            1 RES     
   24816 C1         829.8142  -658.1655  -559.3801 C1            1 RES     
   24817 C1         829.4249  -658.7947  -558.2006 C1            1 RES     
   24818 H5         828.3405  -656.1409  -556.4480 H5            1 RES     
   24819 C0         830.7533  -650.5299  -557.7653 C0            1 RES     
   24820 C0         830.3681  -650.8157  -556.2647 C0            1 RES     
   24821 C0         831.4275  -650.0304  -555.4140 C0            1 RES     
   24822 C0         831.3437  -650.1843  -553.8904 C0            1 RES     
   24823 C0         832.4013  -649.3276  -553.1553 C0            1 RES     
   24824 C0         833.8759  -649.6811  -553.4492 C0            1 RES     
   24825 C0         834.2519  -651.1521  -553.1983 C0            1 RES     
   24826 C0         833.9714  -651.6086  -551.7555 C0            1 RES     
   24827 C0         834.2950  -653.0914  -551.5229 C0            1 RES     
   24828 C0         835.7975  -653.4059  -551.6202 C0            1 RES     
   24829 C0         836.1216  -654.8676  -551.2731 C0            1 RES     
   24830 C0         835.5392  -655.8675  -552.2727 C0            1 RES     
   24831 C0         828.9071  -650.5458  -555.7771 C0            1 RES     
   24832 C0         828.3629  -649.0841  -555.7715 C0            1 RES     
   24833 C0         827.1240  -649.0128  -556.6693 C0            1 RES     
   24834 C0         826.6139  -647.6340  -557.0785 C0            1 RES     
   24835 C0         825.7795  -646.8876  -556.0478 C0            1 RES     
   24836 C0         825.3329  -645.5534  -556.6818 C0            1 RES     
   24837 C0         824.3241  -644.7647  -555.8438 C0            1 RES     
   24838 C0         822.9639  -645.4612  -555.7656 C0            1 RES     
   24839 H6         830.8728  -649.4773  -557.8034 H6            1 RES     
   24840 H6         831.7662  -650.9832  -557.8565 H6            1 RES     
   24841 H6         830.5214  -651.9056  -556.0996 H6            1 RES     
   24842 H6         831.3454  -648.9444  -555.6384 H6            1 RES     
   24843 H6         832.4364  -650.3644  -555.7380 H6            1 RES     
   24844 H6         831.4411  -651.2526  -553.6092 H6            1 RES     
   24845 H6         830.3565  -649.8205  -553.5406 H6            1 RES     
   24846 H6         832.2216  -649.4194  -552.0641 H6            1 RES     
   24847 H6         832.2472  -648.2558  -553.4105 H6            1 RES     
   24848 H6         834.5192  -649.0303  -552.8160 H6            1 RES     
   24849 H6         834.1156  -649.4381  -554.5065 H6            1 RES     
   24850 H6         833.6914  -651.7991  -553.9056 H6            1 RES     
   24851 H6         835.3329  -651.2594  -553.4256 H6            1 RES     
   24852 H6         832.8883  -651.4925  -551.5474 H6            1 RES     
   24853 H6         834.5356  -650.9774  -551.0345 H6            1 RES     
   24854 H6         833.9528  -653.3523  -550.4977 H6            1 RES     
   24855 H6         833.7139  -653.6981  -552.2488 H6            1 RES     
   24856 H6         836.1849  -653.1854  -552.6364 H6            1 RES     
   24857 H6         836.3335  -652.7586  -550.8923 H6            1 RES     
   24858 H6         835.7522  -655.1034  -550.2512 H6            1 RES     
   24859 H6         837.2266  -654.9865  -551.2766 H6            1 RES     
   24860 H6         834.4310  -655.8355  -552.2780 H6            1 RES     
   24861 H6         835.9191  -655.6532  -553.2942 H6            1 RES     
   24862 H6         835.8484  -656.8948  -551.9872 H6            1 RES     
   24863 H6         828.8268  -650.9205  -554.7342 H6            1 RES     
   24864 H6         828.2253  -651.2274  -556.3295 H6            1 RES     
   24865 H6         828.0652  -648.7774  -554.7437 H6            1 RES     
   24866 H6         829.1462  -648.3845  -556.1276 H6            1 RES     
   24867 H6         826.2996  -649.6598  -556.3023 H6            1 RES     
   24868 H6         827.4677  -649.4254  -557.5939 H6            1 RES     
   24869 H6         827.4573  -647.0265  -557.4158 H6            1 RES     
   24870 H6         825.9521  -647.7939  -557.9599 H6            1 RES     
   24871 H6         824.9024  -647.5264  -555.8109 H6            1 RES     
   24872 H6         826.3564  -646.6983  -555.1180 H6            1 RES     
   24873 H6         826.2399  -644.9260  -556.8364 H6            1 RES     
   24874 H6         824.8741  -645.7314  -557.6810 H6            1 RES     
   24875 H6         824.1653  -643.7831  -556.3422 H6            1 RES     
   24876 H6         824.7285  -644.5809  -554.8262 H6            1 RES     
   24877 H6         823.0354  -646.4352  -555.2425 H6            1 RES     
   24878 H6         822.2509  -644.8200  -555.2088 H6            1 RES     
   24879 H6         822.5601  -645.6276  -556.7893 H6            1 RES     
   24880 C0         830.9605  -650.7708  -560.3595 C0            1 RES     
   24881 C0         832.2792  -649.8752  -560.4297 C0            1 RES     
   24882 C0         832.5329  -649.5797  -561.9465 C0            1 RES     
   24883 C0         833.9011  -648.9533  -562.2836 C0            1 RES     
   24884 C0         834.0977  -648.6582  -563.7811 C0            1 RES     
   24885 C0         834.0173  -649.8762  -564.7187 C0            1 RES     
   24886 C0         834.9519  -651.0425  -564.3567 C0            1 RES     
   24887 C0         836.4369  -650.6427  -564.3015 C0            1 RES     
   24888 C0         837.3569  -651.8180  -563.9336 C0            1 RES     
   24889 C0         837.3951  -652.9105  -565.0172 C0            1 RES     
   24890 C0         838.4075  -654.0250  -564.7104 C0            1 RES     
   24891 C0         838.0455  -654.8449  -563.4719 C0            1 RES     
   24892 C0         832.5646  -648.5925  -559.5407 C0            1 RES     
   24893 C0         831.7503  -647.2782  -559.7064 C0            1 RES     
   24894 C0         830.7635  -647.0500  -558.5474 C0            1 RES     
   24895 C0         829.8713  -645.8235  -558.6440 C0            1 RES     
   24896 C0         830.5297  -644.4706  -558.4131 C0            1 RES     
   24897 C0         829.4026  -643.4179  -558.3891 C0            1 RES     
   24898 C0         829.8597  -642.0072  -558.0135 C0            1 RES     
   24899 C0         830.3209  -641.9144  -556.5582 C0            1 RES     
   24900 H6         830.3130  -650.5200  -561.2317 H6            1 RES     
   24901 H6         831.3067  -651.7881  -560.6512 H6            1 RES     
   24902 H6         833.0842  -650.5663  -560.0886 H6            1 RES     
   24903 H6         831.7333  -648.9063  -562.3238 H6            1 RES     
   24904 H6         832.4569  -650.5421  -562.4967 H6            1 RES     
   24905 H6         834.7102  -649.6173  -561.9135 H6            1 RES     
   24906 H6         834.0042  -647.9665  -561.7920 H6            1 RES     
   24907 H6         835.0909  -648.1754  -563.9027 H6            1 RES     
   24908 H6         833.3376  -647.9161  -564.1105 H6            1 RES     
   24909 H6         834.2498  -649.5284  -565.7490 H6            1 RES     
   24910 H6         832.9752  -650.2609  -564.7312 H6            1 RES     
   24911 H6         834.6513  -651.4689  -563.3759 H6            1 RES     
   24912 H6         834.7976  -651.8247  -565.1277 H6            1 RES     
   24913 H6         836.5722  -649.8722  -563.5140 H6            1 RES     
   24914 H6         836.7549  -650.2064  -565.2731 H6            1 RES     
   24915 H6         838.3857  -651.4145  -563.8122 H6            1 RES     
   24916 H6         837.0303  -652.2371  -562.9582 H6            1 RES     
   24917 H6         836.3944  -653.3694  -565.1554 H6            1 RES     
   24918 H6         837.6978  -652.4354  -565.9758 H6            1 RES     
   24919 H6         839.4223  -653.5884  -564.5860 H6            1 RES     
   24920 H6         838.4325  -654.7154  -565.5810 H6            1 RES     
   24921 H6         838.0562  -654.2195  -562.5566 H6            1 RES     
   24922 H6         837.0409  -655.3027  -563.5948 H6            1 RES     
   24923 H6         838.7911  -655.6570  -563.3395 H6            1 RES     
   24924 H6         833.6100  -648.3189  -559.7739 H6            1 RES     
   24925 H6         832.7245  -648.8291  -558.4720 H6            1 RES     
   24926 H6         832.4629  -646.4273  -559.6319 H6            1 RES     
   24927 H6         831.2769  -647.2283  -560.7079 H6            1 RES     
   24928 H6         831.3060  -647.0475  -557.5748 H6            1 RES     
   24929 H6         830.0371  -647.8546  -558.5216 H6            1 RES     
   24930 H6         829.3085  -645.8397  -559.6027 H6            1 RES     
   24931 H6         829.1617  -645.9255  -557.8064 H6            1 RES     
   24932 H6         831.0486  -644.5094  -557.4320 H6            1 RES     
   24933 H6         831.2685  -644.2423  -559.2093 H6            1 RES     
   24934 H6         828.9384  -643.3874  -559.3994 H6            1 RES     
   24935 H6         828.6105  -643.7165  -557.6643 H6            1 RES     
   24936 H6         828.9821  -641.3339  -558.1284 H6            1 RES     
   24937 H6         830.6593  -641.6689  -558.7020 H6            1 RES     
   24938 H6         831.2227  -642.5326  -556.3785 H6            1 RES     
   24939 H6         830.5696  -640.8600  -556.3195 H6            1 RES     
   24940 H6         829.5089  -642.2471  -555.8749 H6            1 RES     
   24941 C0         831.3903  -663.7477  -557.1126 C0            1 RES     
   24942 C1         830.5073  -662.5348  -557.4800 C1            1 RES     
   24943 C1         829.3454  -662.9035  -558.0794 C1            1 RES     
   24944 S2         828.4066  -661.6087  -558.5738 S2            1 RES     
   24945 C1         829.5590  -660.4812  -558.0337 C1            1 RES     
   24946 C1         830.6620  -661.1385  -557.4779 C1            1 RES     
   24947 C1         829.3264  -664.3090  -558.2091 C1            1 RES     
   24948 C1         830.5031  -664.8167  -557.7524 C1            1 RES     
   24949 C1         830.6131  -666.1830  -557.9810 C1            1 RES     
   24950 C1         829.4501  -666.6770  -558.5955 C1            1 RES     
   24951 S2         828.3105  -665.4484  -558.8698 S2            1 RES     
   24952 H3         831.5303  -660.5997  -557.1490 H3            1 RES     
   24953 H3         831.4795  -666.7809  -557.7245 H3            1 RES     
   24954 N4         828.0649  -670.1370  -558.9956 N4            1 RES     
   24955 C1         828.2752  -668.8811  -558.5029 C1            1 RES     
   24956 C1         829.2420  -668.0380  -559.0774 C1            1 RES     
   24957 C1         829.9608  -668.5130  -560.1758 C1            1 RES     
   24958 N4         830.8797  -667.7818  -560.8574 N4            1 RES     
   24959 S2         831.3331  -668.8215  -562.0597 S2            1 RES     
   24960 N4         830.4267  -670.1761  -561.7733 N4            1 RES     
   24961 C1         829.7100  -669.8135  -560.6808 C1            1 RES     
   24962 C1         828.7603  -670.6223  -560.0622 C1            1 RES     
   24963 H5         827.6925  -668.5385  -557.6522 H5            1 RES     
   24964 C0         831.6065  -664.1199  -555.6035 C0            1 RES     
   24965 C0         830.6105  -664.7445  -554.5548 C0            1 RES     
   24966 C0         831.3964  -664.7484  -553.1966 C0            1 RES     
   24967 C0         830.6897  -665.3774  -551.9895 C0            1 RES     
   24968 C0         831.5352  -665.2790  -550.6979 C0            1 RES     
   24969 C0         832.8886  -666.0230  -550.7216 C0            1 RES     
   24970 C0         832.8000  -667.5182  -551.0745 C0            1 RES     
   24971 C0         831.8823  -668.3087  -550.1249 C0            1 RES     
   24972 C0         831.7514  -669.7886  -550.5126 C0            1 RES     
   24973 C0         833.0612  -670.5770  -550.3436 C0            1 RES     
   24974 C0         832.8905  -672.0785  -550.6240 C0            1 RES     
   24975 C0         832.5413  -672.3833  -552.0812 C0            1 RES     
   24976 C0         829.1747  -664.1447  -554.4004 C0            1 RES     
   24977 C0         829.0106  -662.6846  -553.8772 C0            1 RES     
   24978 C0         828.2727  -661.8587  -554.9352 C0            1 RES     
   24979 C0         828.2833  -660.3392  -554.7939 C0            1 RES     
   24980 C0         827.2994  -659.7451  -553.7967 C0            1 RES     
   24981 C0         827.4450  -658.2098  -553.8506 C0            1 RES     
   24982 C0         826.3903  -657.4486  -553.0442 C0            1 RES     
   24983 C0         824.9911  -657.5790  -553.6495 C0            1 RES     
   24984 H6         831.9614  -663.2412  -555.1284 H6            1 RES     
   24985 H6         832.4461  -664.8510  -555.6206 H6            1 RES     
   24986 H6         830.4411  -665.7993  -554.8670 H6            1 RES     
   24987 H6         831.6518  -663.7026  -552.9181 H6            1 RES     
   24988 H6         832.3502  -665.2945  -553.3591 H6            1 RES     
   24989 H6         830.4296  -666.4332  -552.2076 H6            1 RES     
   24990 H6         829.7517  -664.8225  -551.7858 H6            1 RES     
   24991 H6         830.9263  -665.6697  -549.8566 H6            1 RES     
   24992 H6         831.7352  -664.2084  -550.4710 H6            1 RES     
   24993 H6         833.3587  -665.9154  -549.7186 H6            1 RES     
   24994 H6         833.5713  -665.5354  -551.4499 H6            1 RES     
   24995 H6         832.4338  -667.6272  -552.1171 H6            1 RES     
   24996 H6         833.8304  -667.9284  -551.0331 H6            1 RES     
   24997 H6         830.8594  -667.8835  -550.1791 H6            1 RES     
   24998 H6         832.2429  -668.2194  -549.0767 H6            1 RES     
   24999 H6         830.9858  -670.2430  -549.8466 H6            1 RES     
   25000 H6         831.3830  -669.8488  -551.5582 H6            1 RES     
   25001 H6         833.8546  -670.1771  -551.0084 H6            1 RES     
   25002 H6         833.3975  -670.4659  -549.2897 H6            1 RES     
   25003 H6         832.1075  -672.5002  -549.9566 H6            1 RES     
   25004 H6         833.8520  -672.5848  -550.3909 H6            1 RES     
   25005 H6         831.5611  -671.9478  -552.3619 H6            1 RES     
   25006 H6         833.3287  -671.9841  -552.7552 H6            1 RES     
   25007 H6         832.4776  -673.4827  -552.2215 H6            1 RES     
   25008 H6         828.6108  -664.7995  -553.7021 H6            1 RES     
   25009 H6         828.6318  -664.2927  -555.3585 H6            1 RES     
   25010 H6         828.4094  -662.6659  -552.9405 H6            1 RES     
   25011 H6         830.0045  -662.2441  -553.6587 H6            1 RES     
   25012 H6         827.2494  -662.2425  -555.1314 H6            1 RES     
   25013 H6         828.8509  -662.0214  -555.8198 H6            1 RES     
   25014 H6         829.3032  -660.0068  -554.5854 H6            1 RES     
   25015 H6         828.0029  -659.9301  -555.7912 H6            1 RES     
   25016 H6         826.2818  -660.0575  -554.1138 H6            1 RES     
   25017 H6         827.4914  -660.1144  -552.7672 H6            1 RES     
   25018 H6         828.4544  -657.9467  -553.4606 H6            1 RES     
   25019 H6         827.3881  -657.8500  -554.9032 H6            1 RES     
   25020 H6         826.6617  -656.3702  -553.0665 H6            1 RES     
   25021 H6         826.3928  -657.7899  -551.9876 H6            1 RES     
   25022 H6         824.6339  -658.6274  -553.6255 H6            1 RES     
   25023 H6         824.2782  -656.9564  -553.0719 H6            1 RES     
   25024 H6         824.9954  -657.2209  -554.7033 H6            1 RES     
   25025 C0         832.7560  -663.5070  -557.8693 C0            1 RES     
   25026 C0         834.1592  -663.1921  -557.1780 C0            1 RES     
   25027 C0         835.0463  -662.5054  -558.2706 C0            1 RES     
   25028 C0         836.5388  -662.3489  -557.9156 C0            1 RES     
   25029 C0         837.3673  -661.6483  -559.0069 C0            1 RES     
   25030 C0         837.3935  -662.3468  -560.3782 C0            1 RES     
   25031 C0         837.8274  -663.8218  -560.3521 C0            1 RES     
   25032 C0         839.2200  -664.0396  -559.7346 C0            1 RES     
   25033 C0         839.6366  -665.5192  -559.7114 C0            1 RES     
   25034 C0         839.8538  -666.1023  -561.1192 C0            1 RES     
   25035 C0         840.3903  -667.5420  -561.0963 C0            1 RES     
   25036 C0         839.3996  -668.5459  -560.5066 C0            1 RES     
   25037 C0         834.3494  -662.4960  -555.7651 C0            1 RES     
   25038 C0         833.9787  -661.0050  -555.5253 C0            1 RES     
   25039 C0         832.6934  -660.8471  -554.6931 C0            1 RES     
   25040 C0         832.2066  -659.4273  -554.4547 C0            1 RES     
   25041 C0         833.0035  -658.5797  -553.4730 C0            1 RES     
   25042 C0         832.2212  -657.2657  -553.2720 C0            1 RES     
   25043 C0         832.7944  -656.3444  -552.1937 C0            1 RES     
   25044 C0         832.6556  -656.9363  -550.7903 C0            1 RES     
   25045 H6         832.5757  -662.7515  -558.6692 H6            1 RES     
   25046 H6         832.9542  -664.4117  -558.4874 H6            1 RES     
   25047 H6         834.5909  -664.2020  -556.9887 H6            1 RES     
   25048 H6         834.6297  -661.5002  -558.4973 H6            1 RES     
   25049 H6         834.9811  -663.1187  -559.1949 H6            1 RES     
   25050 H6         836.9688  -663.3469  -557.6883 H6            1 RES     
   25051 H6         836.6566  -661.7043  -557.0231 H6            1 RES     
   25052 H6         838.4086  -661.5530  -558.6316 H6            1 RES     
   25053 H6         836.9824  -660.6149  -559.1514 H6            1 RES     
   25054 H6         838.0824  -661.7753  -561.0380 H6            1 RES     
   25055 H6         836.3829  -662.2930  -560.8362 H6            1 RES     
   25056 H6         837.0797  -664.4192  -559.7879 H6            1 RES     
   25057 H6         837.8189  -664.1745  -561.4036 H6            1 RES     
   25058 H6         839.2025  -663.6959  -558.6793 H6            1 RES     
   25059 H6         839.9818  -663.4433  -560.2820 H6            1 RES     
   25060 H6         840.5968  -665.5895  -559.1554 H6            1 RES     
   25061 H6         838.8694  -666.0988  -559.1553 H6            1 RES     
   25062 H6         838.9131  -666.0843  -561.7071 H6            1 RES     
   25063 H6         840.6054  -665.4713  -561.6419 H6            1 RES     
   25064 H6         841.3441  -667.5797  -560.5265 H6            1 RES     
   25065 H6         840.6012  -667.8465  -562.1442 H6            1 RES     
   25066 H6         839.1885  -668.3260  -559.4407 H6            1 RES     
   25067 H6         838.4495  -668.5308  -561.0820 H6            1 RES     
   25068 H6         839.8333  -669.5663  -560.5655 H6            1 RES     
   25069 H6         835.4347  -662.5620  -555.5658 H6            1 RES     
   25070 H6         834.0204  -663.1285  -554.9193 H6            1 RES     
   25071 H6         834.7741  -660.5568  -554.8900 H6            1 RES     
   25072 H6         833.9600  -660.4423  -556.4806 H6            1 RES     
   25073 H6         832.7967  -661.3801  -553.7207 H6            1 RES     
   25074 H6         831.8566  -661.2849  -555.2257 H6            1 RES     
   25075 H6         832.0768  -658.9037  -555.4267 H6            1 RES     
   25076 H6         831.2219  -659.5451  -553.9731 H6            1 RES     
   25077 H6         833.0732  -659.1426  -552.5183 H6            1 RES     
   25078 H6         834.0261  -658.3779  -553.8546 H6            1 RES     
   25079 H6         832.2099  -656.7200  -554.2412 H6            1 RES     
   25080 H6         831.1635  -657.4840  -552.9971 H6            1 RES     
   25081 H6         832.2052  -655.4015  -552.2173 H6            1 RES     
   25082 H6         833.8533  -656.1071  -552.4177 H6            1 RES     
   25083 H6         833.2532  -657.8629  -550.6803 H6            1 RES     
   25084 H6         833.0177  -656.1992  -550.0446 H6            1 RES     
   25085 H6         831.5889  -657.1625  -550.5715 H6            1 RES     
   25086 C0         828.9906  -675.9971  -560.8601 C0            1 RES     
   25087 C1         828.6153  -674.4988  -560.8561 C1            1 RES     
   25088 C1         827.7315  -674.1844  -561.8386 C1            1 RES     
   25089 S2         827.3742  -672.5510  -561.9205 S2            1 RES     
   25090 C1         828.4409  -672.1860  -560.6478 C1            1 RES     
   25091 C1         829.0619  -673.3500  -560.1820 C1            1 RES     
   25092 C1         827.4539  -675.3468  -562.5900 C1            1 RES     
   25093 C1         828.2127  -676.3743  -562.1218 C1            1 RES     
   25094 C1         828.0980  -677.5159  -562.9059 C1            1 RES     
   25095 C1         827.1914  -677.3041  -563.9583 C1            1 RES     
   25096 S2         826.5539  -675.7304  -563.9352 S2            1 RES     
   25097 H3         829.8273  -673.3165  -559.4301 H3            1 RES     
   25098 H3         828.6383  -678.4385  -562.7305 H3            1 RES     
   25099 N4         825.3452  -679.6472  -566.2280 N4            1 RES     
   25100 C1         825.6178  -678.8097  -565.1848 C1            1 RES     
   25101 C1         826.8932  -678.2369  -565.0393 C1            1 RES     
   25102 C1         827.8606  -678.5308  -566.0019 C1            1 RES     
   25103 N4         829.1104  -678.0001  -566.0110 N4            1 RES     
   25104 S2         829.7565  -678.6487  -567.3871 S2            1 RES     
   25105 N4         828.5349  -679.5858  -567.9937 N4            1 RES     
   25106 C1         827.5468  -679.3878  -567.0864 C1            1 RES     
   25107 C1         826.2770  -679.9524  -567.1743 C1            1 RES     
   25108 H5         824.8398  -678.5943  -564.4575 H5            1 RES     
   25109 C0         828.5090  -676.9197  -559.6855 C0            1 RES     
   25110 C0         827.0700  -677.4569  -559.3355 C0            1 RES     
   25111 C0         827.2378  -678.2178  -557.9734 C0            1 RES     
   25112 C0         825.9939  -678.9196  -557.4145 C0            1 RES     
   25113 C0         826.2637  -679.5910  -556.0473 C0            1 RES     
   25114 C0         827.3164  -680.7213  -556.0490 C0            1 RES     
   25115 C0         827.0445  -681.8585  -557.0495 C0            1 RES     
   25116 C0         825.6775  -682.5334  -556.8385 C0            1 RES     
   25117 C0         825.3849  -683.6298  -557.8728 C0            1 RES     
   25118 C0         826.3131  -684.8491  -557.7418 C0            1 RES     
   25119 C0         825.9381  -685.9867  -558.7049 C0            1 RES     
   25120 C0         826.1306  -685.6182  -560.1765 C0            1 RES     
   25121 C0         825.8605  -676.4662  -559.3092 C0            1 RES     
   25122 C0         825.8322  -675.3256  -558.2457 C0            1 RES     
   25123 C0         825.7716  -673.9760  -558.9674 C0            1 RES     
   25124 C0         826.0623  -672.7161  -558.1568 C0            1 RES     
   25125 C0         824.9242  -672.1873  -557.2962 C0            1 RES     
   25126 C0         825.4156  -670.8957  -556.6094 C0            1 RES     
   25127 C0         824.3263  -670.1306  -555.8543 C0            1 RES     
   25128 C0         823.2858  -669.5213  -556.7963 C0            1 RES     
   25129 H6         828.8341  -676.4549  -558.7899 H6            1 RES     
   25130 H6         829.1033  -677.8529  -559.8105 H6            1 RES     
   25131 H6         826.8076  -678.1980  -560.1232 H6            1 RES     
   25132 H6         827.5882  -677.5043  -557.1958 H6            1 RES     
   25133 H6         828.0321  -678.9828  -558.1088 H6            1 RES     
   25134 H6         825.6134  -679.6610  -558.1463 H6            1 RES     
   25135 H6         825.1996  -678.1670  -557.2359 H6            1 RES     
   25136 H6         825.3034  -679.9963  -555.6667 H6            1 RES     
   25137 H6         826.5904  -678.8179  -555.3170 H6            1 RES     
   25138 H6         827.3663  -681.1473  -555.0221 H6            1 RES     
   25139 H6         828.3196  -680.2983  -556.2700 H6            1 RES     
   25140 H6         827.1025  -681.4579  -558.0836 H6            1 RES     
   25141 H6         827.8572  -682.6045  -556.9295 H6            1 RES     
   25142 H6         824.8799  -681.7726  -556.9607 H6            1 RES     
   25143 H6         825.6079  -682.9508  -555.8101 H6            1 RES     
   25144 H6         824.3394  -683.9722  -557.7116 H6            1 RES     
   25145 H6         825.4529  -683.1854  -558.8879 H6            1 RES     
   25146 H6         827.3709  -684.5645  -557.9194 H6            1 RES     
   25147 H6         826.2245  -685.2408  -556.7051 H6            1 RES     
   25148 H6         824.8839  -686.2949  -558.5322 H6            1 RES     
   25149 H6         826.5928  -686.8570  -558.4830 H6            1 RES     
   25150 H6         825.4623  -684.7859  -560.4758 H6            1 RES     
   25151 H6         827.1865  -685.3288  -560.3638 H6            1 RES     
   25152 H6         825.8853  -686.4962  -560.8101 H6            1 RES     
   25153 H6         824.9380  -677.0666  -559.1582 H6            1 RES     
   25154 H6         825.7190  -676.0638  -560.3352 H6            1 RES     
   25155 H6         824.9321  -675.4131  -557.5966 H6            1 RES     
   25156 H6         826.7314  -675.3848  -557.5994 H6            1 RES     
   25157 H6         824.8500  -673.8648  -559.5767 H6            1 RES     
   25158 H6         826.5988  -674.0225  -559.6433 H6            1 RES     
   25159 H6         826.9646  -672.8747  -557.5611 H6            1 RES     
   25160 H6         826.2939  -671.9152  -558.8953 H6            1 RES     
   25161 H6         824.0711  -671.9747  -557.9748 H6            1 RES     
   25162 H6         824.6099  -672.9326  -556.5354 H6            1 RES     
   25163 H6         826.2219  -671.1731  -555.8930 H6            1 RES     
   25164 H6         825.8575  -670.2001  -557.3586 H6            1 RES     
   25165 H6         824.8162  -669.2906  -555.3142 H6            1 RES     
   25166 H6         823.8383  -670.7916  -555.1075 H6            1 RES     
   25167 H6         822.7251  -670.3044  -557.3439 H6            1 RES     
   25168 H6         822.5606  -668.9220  -556.2094 H6            1 RES     
   25169 H6         823.7824  -668.8491  -557.5314 H6            1 RES     
   25170 C0         830.5600  -676.0279  -561.0378 C0            1 RES     
   25171 C0         831.6112  -676.5090  -559.9380 C0            1 RES     
   25172 C0         832.9840  -675.8630  -560.3258 C0            1 RES     
   25173 C0         834.2118  -676.3974  -559.5609 C0            1 RES     
   25174 C0         835.5348  -675.7183  -559.9568 C0            1 RES     
   25175 C0         835.9415  -675.8572  -561.4347 C0            1 RES     
   25176 C0         835.9919  -677.2994  -561.9660 C0            1 RES     
   25177 C0         836.9445  -678.2112  -561.1728 C0            1 RES     
   25178 C0         836.9795  -679.6500  -561.7131 C0            1 RES     
   25179 C0         837.5966  -679.7465  -563.1199 C0            1 RES     
   25180 C0         837.7476  -681.1947  -563.6110 C0            1 RES     
   25181 C0         836.4093  -681.9028  -563.8225 C0            1 RES     
   25182 C0         831.3808  -676.4659  -558.3689 C0            1 RES     
   25183 C0         831.2861  -675.1249  -557.5873 C0            1 RES     
   25184 C0         829.8472  -674.8054  -557.1437 C0            1 RES     
   25185 C0         829.6336  -673.4830  -556.4258 C0            1 RES     
   25186 C0         830.1477  -673.3822  -554.9966 C0            1 RES     
   25187 C0         829.6615  -672.0300  -554.4360 C0            1 RES     
   25188 C0         829.9542  -671.8170  -552.9497 C0            1 RES     
   25189 C0         829.1485  -672.7627  -552.0577 C0            1 RES     
   25190 H6         830.8803  -675.0327  -561.4251 H6            1 RES     
   25191 H6         830.7790  -676.6683  -561.9220 H6            1 RES     
   25192 H6         831.6986  -677.6050  -560.1203 H6            1 RES     
   25193 H6         832.9237  -674.7637  -560.1736 H6            1 RES     
   25194 H6         833.1526  -676.0493  -561.4083 H6            1 RES     
   25195 H6         834.2853  -677.4956  -559.7059 H6            1 RES     
   25196 H6         834.1095  -676.1922  -558.4777 H6            1 RES     
   25197 H6         836.3382  -676.1472  -559.3205 H6            1 RES     
   25198 H6         835.4768  -674.6346  -559.7133 H6            1 RES     
   25199 H6         836.9420  -675.3877  -561.5578 H6            1 RES     
   25200 H6         835.2309  -675.2821  -562.0659 H6            1 RES     
   25201 H6         834.9706  -677.7366  -561.9515 H6            1 RES     
   25202 H6         836.3186  -677.2374  -563.0240 H6            1 RES     
   25203 H6         836.5909  -678.2727  -560.1224 H6            1 RES     
   25204 H6         837.9714  -677.7859  -561.1697 H6            1 RES     
   25205 H6         837.6030  -680.2547  -561.0192 H6            1 RES     
   25206 H6         835.9480  -680.0619  -561.7027 H6            1 RES     
   25207 H6         836.9914  -679.1831  -563.8597 H6            1 RES     
   25208 H6         838.6125  -679.2960  -563.0828 H6            1 RES     
   25209 H6         838.3672  -681.7736  -562.8921 H6            1 RES     
   25210 H6         838.2796  -681.1727  -564.5865 H6            1 RES     
   25211 H6         835.8514  -682.0041  -562.8698 H6            1 RES     
   25212 H6         835.7903  -681.3427  -564.5553 H6            1 RES     
   25213 H6         836.5935  -682.9228  -564.2206 H6            1 RES     
   25214 H6         832.2569  -676.9894  -557.9442 H6            1 RES     
   25215 H6         830.6151  -677.1842  -558.0204 H6            1 RES     
   25216 H6         831.8462  -675.2489  -556.6343 H6            1 RES     
   25217 H6         831.7690  -674.3017  -558.1517 H6            1 RES     
   25218 H6         829.4398  -675.6399  -556.5288 H6            1 RES     
   25219 H6         829.2121  -674.6929  -558.0152 H6            1 RES     
   25220 H6         830.0151  -672.6471  -557.0515 H6            1 RES     
   25221 H6         828.5395  -673.3905  -556.3269 H6            1 RES     
   25222 H6         829.7105  -674.2240  -554.4191 H6            1 RES     
   25223 H6         831.2549  -673.4505  -554.9622 H6            1 RES     
   25224 H6         830.1526  -671.2193  -555.0181 H6            1 RES     
   25225 H6         828.5610  -671.9261  -554.5779 H6            1 RES     
   25226 H6         829.6464  -670.7784  -552.6978 H6            1 RES     
   25227 H6         831.0400  -671.9224  -552.7555 H6            1 RES     
   25228 H6         829.4336  -673.8201  -552.2264 H6            1 RES     
   25229 H6         829.3424  -672.5164  -550.9936 H6            1 RES     
   25230 H6         828.0603  -672.6429  -552.2534 H6            1 RES     
   25231 C0         825.6048  -684.4039  -570.2256 C0            1 RES     
   25232 C1         825.6002  -682.9735  -569.6428 C1            1 RES     
   25233 C1         825.2663  -682.0384  -570.5699 C1            1 RES     
   25234 S2         825.3414  -680.4681  -569.9944 S2            1 RES     
   25235 C1         825.8751  -680.9836  -568.4646 C1            1 RES     
   25236 C1         825.9889  -682.3778  -568.4313 C1            1 RES     
   25237 C1         825.0559  -682.6810  -571.8090 C1            1 RES     
   25238 C1         825.3219  -684.0085  -571.6757 C1            1 RES     
   25239 C1         825.2742  -684.6815  -572.8906 C1            1 RES     
   25240 C1         824.9248  -683.8025  -573.9296 C1            1 RES     
   25241 S2         824.6952  -682.2176  -573.3652 S2            1 RES     
   25242 H3         826.3846  -682.8892  -567.5745 H3            1 RES     
   25243 H3         825.4834  -685.7371  -573.0168 H3            1 RES     
   25244 N4         823.6481  -684.3655  -577.4086 N4            1 RES     
   25245 C1         823.6677  -684.1026  -576.0690 C1            1 RES     
   25246 C1         824.8760  -684.1253  -575.3513 C1            1 RES     
   25247 C1         826.0523  -684.4008  -576.0509 C1            1 RES     
   25248 N4         827.2891  -684.3971  -575.4907 N4            1 RES     
   25249 S2         828.2622  -684.7183  -576.7875 S2            1 RES     
   25250 N4         827.2020  -684.8705  -578.0490 N4            1 RES     
   25251 C1         826.0078  -684.6511  -577.4454 C1            1 RES     
   25252 C1         824.7836  -684.6433  -578.1088 C1            1 RES     
   25253 H5         822.7354  -683.8830  -575.5558 H5            1 RES     
   25254 C0         824.5096  -685.4305  -569.7681 C0            1 RES     
   25255 C0         822.9686  -685.4884  -570.0904 C0            1 RES     
   25256 C0         822.4154  -686.6781  -569.2296 C0            1 RES     
   25257 C0         820.9301  -687.0219  -569.3972 C0            1 RES     
   25258 C0         820.4858  -688.1735  -568.4648 C0            1 RES     
   25259 C0         821.1758  -689.5350  -568.7014 C0            1 RES     
   25260 C0         821.0737  -690.0717  -570.1400 C0            1 RES     
   25261 C0         819.6210  -690.2270  -570.6241 C0            1 RES     
   25262 C0         819.5227  -690.7093  -572.0785 C0            1 RES     
   25263 C0         820.0299  -692.1479  -572.2750 C0            1 RES     
   25264 C0         819.8210  -692.6603  -573.7089 C0            1 RES     
   25265 C0         820.6519  -691.9037  -574.7460 C0            1 RES     
   25266 C0         822.0981  -684.1986  -569.9371 C0            1 RES     
   25267 C0         821.9082  -683.5706  -568.5221 C0            1 RES     
   25268 C0         822.4363  -682.1330  -568.5425 C0            1 RES     
   25269 C0         822.6569  -681.4315  -567.2053 C0            1 RES     
   25270 C0         821.4204  -680.8552  -566.5311 C0            1 RES     
   25271 C0         821.8757  -680.1570  -565.2324 C0            1 RES     
   25272 C0         820.7765  -679.3581  -564.5285 C0            1 RES     
   25273 C0         820.3522  -678.1248  -565.3288 C0            1 RES     
   25274 H6         824.5514  -685.4578  -568.7092 H6            1 RES     
   25275 H6         824.8824  -686.4112  -570.1410 H6            1 RES     
   25276 H6         822.8793  -685.7602  -571.1660 H6            1 RES     
   25277 H6         822.5812  -686.4590  -568.1522 H6            1 RES     
   25278 H6         823.0081  -687.5832  -569.4828 H6            1 RES     
   25279 H6         820.7134  -687.2699  -570.4561 H6            1 RES     
   25280 H6         820.3177  -686.1426  -569.1128 H6            1 RES     
   25281 H6         819.3894  -688.3034  -568.5756 H6            1 RES     
   25282 H6         820.6622  -687.8778  -567.4068 H6            1 RES     
   25283 H6         820.7230  -690.2763  -568.0058 H6            1 RES     
   25284 H6         822.2519  -689.4607  -568.4353 H6            1 RES     
   25285 H6         821.6200  -689.3895  -570.8249 H6            1 RES     
   25286 H6         821.5869  -691.0555  -570.1620 H6            1 RES     
   25287 H6         819.1255  -689.2353  -570.5934 H6            1 RES     
   25288 H6         819.0629  -690.9176  -569.9546 H6            1 RES     
   25289 H6         818.4503  -690.6777  -572.3703 H6            1 RES     
   25290 H6         820.0803  -689.9993  -572.7248 H6            1 RES     
   25291 H6         821.1069  -692.2282  -572.0201 H6            1 RES     
   25292 H6         819.4571  -692.8123  -571.5918 H6            1 RES     
   25293 H6         818.7437  -692.6000  -573.9777 H6            1 RES     
   25294 H6         820.1256  -693.7286  -573.7418 H6            1 RES     
   25295 H6         820.3571  -690.8363  -574.7999 H6            1 RES     
   25296 H6         821.7321  -691.9757  -574.4977 H6            1 RES     
   25297 H6         820.4869  -692.3531  -575.7476 H6            1 RES     
   25298 H6         821.0823  -684.4315  -570.3221 H6            1 RES     
   25299 H6         822.4634  -683.4444  -570.6667 H6            1 RES     
   25300 H6         820.8306  -683.5409  -568.2445 H6            1 RES     
   25301 H6         822.4442  -684.1746  -567.7620 H6            1 RES     
   25302 H6         821.8773  -681.4887  -569.2533 H6            1 RES     
   25303 H6         823.4297  -682.2426  -568.9226 H6            1 RES     
   25304 H6         823.1935  -682.1050  -566.5327 H6            1 RES     
   25305 H6         823.3309  -680.5691  -567.4117 H6            1 RES     
   25306 H6         820.9721  -680.1244  -567.2371 H6            1 RES     
   25307 H6         820.6762  -681.6470  -566.3023 H6            1 RES     
   25308 H6         822.2530  -680.9397  -564.5358 H6            1 RES     
   25309 H6         822.7183  -679.4589  -565.4404 H6            1 RES     
   25310 H6         821.1880  -678.9987  -563.5596 H6            1 RES     
   25311 H6         819.9014  -680.0085  -564.3190 H6            1 RES     
   25312 H6         819.8931  -678.4066  -566.2968 H6            1 RES     
   25313 H6         819.6073  -677.5444  -564.7476 H6            1 RES     
   25314 H6         821.2329  -677.4720  -565.5209 H6            1 RES     
   25315 C0         827.0688  -684.9440  -569.9792 C0            1 RES     
   25316 C0         827.4691  -686.1250  -568.9837 C0            1 RES     
   25317 C0         828.9899  -685.9358  -568.6618 C0            1 RES     
   25318 C0         829.6675  -687.1117  -567.9295 C0            1 RES     
   25319 C0         831.1543  -686.8729  -567.6127 C0            1 RES     
   25320 C0         832.0665  -686.6309  -568.8285 C0            1 RES     
   25321 C0         832.0004  -687.7114  -569.9206 C0            1 RES     
   25322 C0         832.3376  -689.1224  -569.4071 C0            1 RES     
   25323 C0         832.2621  -690.1912  -570.5094 C0            1 RES     
   25324 C0         833.3436  -690.0143  -571.5902 C0            1 RES     
   25325 C0         833.3503  -691.1508  -572.6244 C0            1 RES     
   25326 C0         832.0817  -691.1991  -573.4761 C0            1 RES     
   25327 C0         826.6573  -686.5458  -567.6872 C0            1 RES     
   25328 C0         826.5632  -685.6230  -566.4392 C0            1 RES     
   25329 C0         825.1753  -684.9733  -566.2940 C0            1 RES     
   25330 C0         824.9960  -684.0009  -565.1399 C0            1 RES     
   25331 C0         824.9164  -684.5962  -563.7413 C0            1 RES     
   25332 C0         824.5620  -683.4439  -562.7793 C0            1 RES     
   25333 C0         824.2874  -683.8810  -561.3392 C0            1 RES     
   25334 C0         823.0086  -684.7112  -561.2182 C0            1 RES     
   25335 H6         827.7272  -684.0677  -569.7751 H6            1 RES     
   25336 H6         827.4694  -685.2718  -570.9652 H6            1 RES     
   25337 H6         827.3758  -687.0407  -569.6120 H6            1 RES     
   25338 H6         829.1200  -685.0167  -568.0506 H6            1 RES     
   25339 H6         829.5239  -685.7842  -569.6245 H6            1 RES     
   25340 H6         829.5467  -688.0372  -568.5307 H6            1 RES     
   25341 H6         829.1966  -687.2715  -566.9403 H6            1 RES     
   25342 H6         831.5269  -687.7577  -567.0536 H6            1 RES     
   25343 H6         831.2471  -685.9997  -566.9301 H6            1 RES     
   25344 H6         833.1120  -686.5493  -568.4585 H6            1 RES     
   25345 H6         831.8073  -685.6555  -569.2927 H6            1 RES     
   25346 H6         830.9862  -687.7200  -570.3739 H6            1 RES     
   25347 H6         832.7211  -687.4118  -570.7086 H6            1 RES     
   25348 H6         831.5962  -689.4092  -568.6324 H6            1 RES     
   25349 H6         833.3474  -689.1323  -568.9427 H6            1 RES     
   25350 H6         832.4124  -691.1820  -570.0279 H6            1 RES     
   25351 H6         831.2459  -690.1728  -570.9574 H6            1 RES     
   25352 H6         833.2185  -689.0501  -572.1247 H6            1 RES     
   25353 H6         834.3358  -690.0102  -571.0883 H6            1 RES     
   25354 H6         833.4931  -692.1265  -572.1110 H6            1 RES     
   25355 H6         834.2128  -690.9894  -573.3063 H6            1 RES     
   25356 H6         831.1873  -691.4116  -572.8563 H6            1 RES     
   25357 H6         831.9406  -690.2351  -574.0098 H6            1 RES     
   25358 H6         832.1763  -692.0101  -574.2285 H6            1 RES     
   25359 H6         827.1568  -687.4659  -567.3322 H6            1 RES     
   25360 H6         825.6778  -687.0063  -567.9161 H6            1 RES     
   25361 H6         826.6617  -686.2648  -565.5360 H6            1 RES     
   25362 H6         827.3981  -684.8936  -566.4212 H6            1 RES     
   25363 H6         824.3855  -685.7574  -566.2544 H6            1 RES     
   25364 H6         824.9753  -684.3420  -567.1526 H6            1 RES     
   25365 H6         825.7673  -683.2022  -565.1950 H6            1 RES     
   25366 H6         824.0009  -683.5543  -565.3008 H6            1 RES     
   25367 H6         824.1131  -685.3630  -563.7446 H6            1 RES     
   25368 H6         825.8763  -685.0728  -563.4524 H6            1 RES     
   25369 H6         825.4085  -682.7222  -562.7798 H6            1 RES     
   25370 H6         823.6583  -682.9019  -563.1419 H6            1 RES     
   25371 H6         824.1438  -682.9581  -560.7354 H6            1 RES     
   25372 H6         825.1571  -684.4370  -560.9365 H6            1 RES     
   25373 H6         823.0949  -685.6708  -561.7655 H6            1 RES     
   25374 H6         822.8187  -684.9374  -560.1489 H6            1 RES     
   25375 H6         822.1404  -684.1414  -561.6163 H6            1 RES     
   25376 C0         824.3946  -687.1875  -582.8998 C0            1 RES     
   25377 C1         824.4786  -686.1516  -581.7572 C1            1 RES     
   25378 C1         824.7515  -684.9010  -582.2119 C1            1 RES     
   25379 S2         824.9407  -683.7710  -580.9913 S2            1 RES     
   25380 C1         824.7027  -684.9408  -579.7806 C1            1 RES     
   25381 C1         824.4822  -686.1983  -580.3531 C1            1 RES     
   25382 C1         824.9075  -684.9505  -583.6140 C1            1 RES     
   25383 C1         824.7986  -686.2409  -584.0312 C1            1 RES     
   25384 C1         825.0835  -686.3847  -585.3837 C1            1 RES     
   25385 C1         825.3741  -685.1382  -585.9633 C1            1 RES     
   25386 S2         825.2988  -683.8800  -584.8254 S2            1 RES     
   25387 H3         824.3860  -687.0813  -579.7503 H3            1 RES     
   25388 H3         825.0859  -687.3296  -585.9139 H3            1 RES     
   25389 N4         825.4747  -683.9538  -589.5182 N4            1 RES     
   25390 C1         825.0248  -684.1971  -588.2523 C1            1 RES     
   25391 C1         825.8169  -684.9076  -587.3339 C1            1 RES     
   25392 C1         827.0804  -685.3346  -587.7462 C1            1 RES     
   25393 N4         827.9655  -685.9782  -586.9426 N4            1 RES     
   25394 S2         829.2719  -686.1637  -587.9380 S2            1 RES     
   25395 N4         828.7867  -685.4707  -589.3601 N4            1 RES     
   25396 C1         827.5323  -685.0524  -589.0597 C1            1 RES     
   25397 C1         826.7016  -684.3678  -589.9428 C1            1 RES     
   25398 H5         824.0398  -683.8433  -587.9601 H5            1 RES     
   25399 C0         823.0099  -687.8313  -583.2617 C0            1 RES     
   25400 C0         821.7478  -687.2053  -583.9669 C0            1 RES     
   25401 C0         820.6526  -688.3280  -583.9166 C0            1 RES     
   25402 C0         819.3163  -688.0229  -584.6046 C0            1 RES     
   25403 C0         818.2986  -689.1772  -584.4474 C0            1 RES     
   25404 C0         818.7058  -690.5244  -585.0841 C0            1 RES     
   25405 C0         819.0602  -690.4532  -586.5799 C0            1 RES     
   25406 C0         817.9189  -689.8877  -587.4438 C0            1 RES     
   25407 C0         818.2950  -689.7655  -588.9274 C0            1 RES     
   25408 C0         818.5061  -691.1261  -589.6128 C0            1 RES     
   25409 C0         818.7687  -690.9964  -591.1216 C0            1 RES     
   25410 C0         820.0850  -690.2886  -591.4452 C0            1 RES     
   25411 C0         821.1963  -685.8251  -583.4810 C0            1 RES     
   25412 C0         820.6107  -685.7024  -582.0407 C0            1 RES     
   25413 C0         821.4086  -684.6469  -581.2692 C0            1 RES     
   25414 C0         821.2363  -684.5840  -579.7542 C0            1 RES     
   25415 C0         819.9956  -683.8664  -579.2432 C0            1 RES     
   25416 C0         820.0472  -683.8790  -577.7009 C0            1 RES     
   25417 C0         818.9667  -683.0295  -577.0278 C0            1 RES     
   25418 C0         819.1752  -681.5321  -577.2634 C0            1 RES     
   25419 H6         822.6256  -688.2362  -582.3605 H6            1 RES     
   25420 H6         823.2717  -688.6861  -583.9254 H6            1 RES     
   25421 H6         822.0299  -687.0354  -585.0300 H6            1 RES     
   25422 H6         820.4264  -688.5720  -582.8556 H6            1 RES     
   25423 H6         821.0805  -689.2394  -584.3863 H6            1 RES     
   25424 H6         819.4833  -687.7916  -585.6762 H6            1 RES     
   25425 H6         818.8527  -687.1372  -584.1251 H6            1 RES     
   25426 H6         817.3345  -688.8495  -584.8883 H6            1 RES     
   25427 H6         818.1065  -689.3523  -583.3656 H6            1 RES     
   25428 H6         817.8644  -691.2394  -584.9453 H6            1 RES     
   25429 H6         819.5784  -690.9464  -584.5413 H6            1 RES     
   25430 H6         819.9678  -689.8272  -586.7117 H6            1 RES     
   25431 H6         819.3090  -691.4834  -586.9090 H6            1 RES     
   25432 H6         817.6842  -688.8601  -587.0990 H6            1 RES     
   25433 H6         817.0049  -690.5113  -587.3321 H6            1 RES     
   25434 H6         817.4591  -689.2444  -589.4433 H6            1 RES     
   25435 H6         819.2036  -689.1329  -589.0108 H6            1 RES     
   25436 H6         819.3498  -691.6782  -589.1492 H6            1 RES     
   25437 H6         817.5795  -691.7264  -589.4812 H6            1 RES     
   25438 H6         817.9259  -690.4567  -591.6060 H6            1 RES     
   25439 H6         818.8168  -692.0195  -591.5530 H6            1 RES     
   25440 H6         820.0795  -689.2399  -591.0856 H6            1 RES     
   25441 H6         820.9360  -690.8325  -590.9828 H6            1 RES     
   25442 H6         820.2312  -690.2701  -592.5455 H6            1 RES     
   25443 H6         820.3889  -685.5211  -584.1811 H6            1 RES     
   25444 H6         821.9758  -685.0552  -583.6659 H6            1 RES     
   25445 H6         819.5463  -685.3779  -582.0734 H6            1 RES     
   25446 H6         820.6571  -686.6833  -581.5255 H6            1 RES     
   25447 H6         821.3313  -683.6397  -581.7301 H6            1 RES     
   25448 H6         822.4203  -684.9740  -581.3821 H6            1 RES     
   25449 H6         821.3022  -685.5950  -579.3447 H6            1 RES     
   25450 H6         822.1100  -684.0146  -579.3631 H6            1 RES     
   25451 H6         820.0344  -682.8267  -579.6319 H6            1 RES     
   25452 H6         819.0660  -684.3568  -579.6016 H6            1 RES     
   25453 H6         819.9373  -684.9342  -577.3623 H6            1 RES     
   25454 H6         821.0357  -683.5128  -577.3413 H6            1 RES     
   25455 H6         819.0335  -683.2049  -575.9315 H6            1 RES     
   25456 H6         817.9592  -683.3433  -577.3732 H6            1 RES     
   25457 H6         819.0828  -681.2725  -578.3364 H6            1 RES     
   25458 H6         818.4107  -680.9587  -576.7008 H6            1 RES     
   25459 H6         820.1814  -681.2243  -576.9007 H6            1 RES     
   25460 C0         825.4851  -688.2755  -582.5501 C0            1 RES     
   25461 C0         825.1902  -689.7866  -582.1309 C0            1 RES     
   25462 C0         826.4635  -690.2916  -581.3720 C0            1 RES     
   25463 C0         826.5205  -691.8088  -581.1020 C0            1 RES     
   25464 C0         827.7764  -692.2569  -580.3338 C0            1 RES     
   25465 C0         829.1215  -691.9616  -581.0213 C0            1 RES     
   25466 C0         829.2516  -692.4932  -582.4584 C0            1 RES     
   25467 C0         829.0385  -694.0131  -582.5706 C0            1 RES     
   25468 C0         829.1668  -694.5277  -584.0135 C0            1 RES     
   25469 C0         830.5956  -694.3973  -584.5710 C0            1 RES     
   25470 C0         830.7555  -695.0240  -585.9648 C0            1 RES     
   25471 C0         829.9465  -694.3065  -587.0455 C0            1 RES     
   25472 C0         823.8635  -690.3010  -581.4292 C0            1 RES     
   25473 C0         823.4943  -689.9009  -579.9727 C0            1 RES     
   25474 C0         822.3423  -688.8813  -579.9191 C0            1 RES     
   25475 C0         821.9448  -688.3746  -578.5425 C0            1 RES     
   25476 C0         821.1931  -689.3434  -577.6406 C0            1 RES     
   25477 C0         820.7546  -688.5507  -576.3922 C0            1 RES     
   25478 C0         819.8475  -689.3256  -575.4347 C0            1 RES     
   25479 C0         818.4745  -689.6161  -576.0426 C0            1 RES     
   25480 H6         826.1870  -687.8304  -581.8069 H6            1 RES     
   25481 H6         826.1570  -688.3646  -583.4337 H6            1 RES     
   25482 H6         825.1506  -690.3262  -583.1052 H6            1 RES     
   25483 H6         826.5434  -689.7566  -580.4010 H6            1 RES     
   25484 H6         827.3515  -690.0234  -581.9838 H6            1 RES     
   25485 H6         826.4435  -692.3562  -582.0648 H6            1 RES     
   25486 H6         825.6766  -692.1165  -580.4547 H6            1 RES     
   25487 H6         827.6936  -693.3510  -580.1599 H6            1 RES     
   25488 H6         827.7849  -691.7725  -579.3326 H6            1 RES     
   25489 H6         829.9277  -692.4021  -580.3948 H6            1 RES     
   25490 H6         829.2883  -690.8635  -581.0437 H6            1 RES     
   25491 H6         828.5221  -691.9723  -583.1147 H6            1 RES     
   25492 H6         830.2705  -692.2259  -582.8054 H6            1 RES     
   25493 H6         828.0091  -694.2571  -582.2345 H6            1 RES     
   25494 H6         829.7556  -694.5522  -581.9143 H6            1 RES     
   25495 H6         828.8925  -695.6051  -584.0119 H6            1 RES     
   25496 H6         828.4395  -693.9846  -584.6536 H6            1 RES     
   25497 H6         830.9072  -693.3338  -584.6231 H6            1 RES     
   25498 H6         831.2852  -694.9308  -583.8810 H6            1 RES     
   25499 H6         830.4654  -696.0966  -585.9313 H6            1 RES     
   25500 H6         831.8289  -694.9648  -586.2468 H6            1 RES     
   25501 H6         828.8578  -694.3767  -586.8479 H6            1 RES     
   25502 H6         830.2435  -693.2375  -587.1012 H6            1 RES     
   25503 H6         830.1465  -694.7816  -588.0289 H6            1 RES     
   25504 H6         823.9663  -691.4015  -581.4118 H6            1 RES     
   25505 H6         822.9769  -690.2608  -582.0896 H6            1 RES     
   25506 H6         823.0857  -690.8037  -579.4674 H6            1 RES     
   25507 H6         824.3942  -689.5829  -579.4083 H6            1 RES     
   25508 H6         821.4479  -689.2831  -580.4473 H6            1 RES     
   25509 H6         822.6405  -687.9659  -580.4178 H6            1 RES     
   25510 H6         822.8319  -687.9483  -578.0257 H6            1 RES     
   25511 H6         821.2186  -687.5687  -578.7387 H6            1 RES     
   25512 H6         820.3074  -689.7103  -578.2011 H6            1 RES     
   25513 H6         821.8310  -690.2067  -577.3582 H6            1 RES     
   25514 H6         821.6703  -688.2373  -575.8442 H6            1 RES     
   25515 H6         820.2102  -687.6261  -576.6933 H6            1 RES     
   25516 H6         819.6868  -688.6846  -574.5401 H6            1 RES     
   25517 H6         820.3427  -690.2638  -575.1148 H6            1 RES     
   25518 H6         818.5537  -690.2875  -576.9206 H6            1 RES     
   25519 H6         817.8353  -690.1117  -575.2833 H6            1 RES     
   25520 H6         817.9819  -688.6682  -576.3519 H6            1 RES     
   25521 C0         827.6705  -684.7664  -595.2795 C0            1 RES     
   25522 C1         827.5267  -684.2975  -593.8149 C1            1 RES     
   25523 C1         828.2258  -683.1599  -593.5651 C1            1 RES     
   25524 S2         828.1661  -682.6751  -591.9639 S2            1 RES     
   25525 C1         827.2194  -684.0170  -591.5236 C1            1 RES     
   25526 C1         826.9686  -684.8246  -592.6383 C1            1 RES     
   25527 C1         828.9042  -682.7751  -594.7416 C1            1 RES     
   25528 C1         828.6848  -683.7056  -595.7096 C1            1 RES     
   25529 C1         829.4380  -683.4666  -596.8527 C1            1 RES     
   25530 C1         830.2010  -682.2958  -596.7065 C1            1 RES     
   25531 S2         829.9661  -681.5748  -595.1872 S2            1 RES     
   25532 H3         826.4506  -685.7606  -592.5492 H3            1 RES     
   25533 H3         829.4388  -684.1003  -597.7315 H3            1 RES     
   25534 N4         831.9481  -680.0804  -599.1743 N4            1 RES     
   25535 C1         830.9958  -680.5634  -598.3235 C1            1 RES     
   25536 C1         831.1851  -681.7849  -597.6542 C1            1 RES     
   25537 C1         832.3803  -682.4742  -597.8674 C1            1 RES     
   25538 N4         832.7126  -683.6322  -597.2414 N4            1 RES     
   25539 S2         834.2283  -683.9270  -597.8310 S2            1 RES     
   25540 N4         834.5067  -682.6588  -598.8570 N4            1 RES     
   25541 C1         833.3617  -681.9418  -598.7407 C1            1 RES     
   25542 C1         833.1182  -680.7407  -599.4017 C1            1 RES     
   25543 H5         830.0803  -679.9980  -598.1727 H5            1 RES     
   25544 C0         826.4337  -684.6902  -596.2425 C0            1 RES     
   25545 C0         825.7224  -683.4433  -596.8915 C0            1 RES     
   25546 C0         824.4762  -684.0292  -597.6438 C0            1 RES     
   25547 C0         823.6208  -683.0382  -598.4428 C0            1 RES     
   25548 C0         822.3949  -683.7169  -599.0981 C0            1 RES     
   25549 C0         822.7097  -684.8097  -600.1434 C0            1 RES     
   25550 C0         823.6288  -684.3608  -601.2931 C0            1 RES     
   25551 C0         823.0742  -683.1555  -602.0731 C0            1 RES     
   25552 C0         824.0191  -682.6747  -603.1837 C0            1 RES     
   25553 C0         824.1751  -683.6905  -604.3280 C0            1 RES     
   25554 C0         825.0303  -683.1530  -605.4864 C0            1 RES     
   25555 C0         826.4892  -682.9119  -605.0968 C0            1 RES     
   25556 C0         825.3452  -682.2169  -595.9976 C0            1 RES     
   25557 C0         824.2844  -682.3943  -594.8681 C0            1 RES     
   25558 C0         824.9279  -682.0417  -593.5236 C0            1 RES     
   25559 C0         824.1935  -682.4480  -592.2491 C0            1 RES     
   25560 C0         823.0444  -681.5502  -591.8143 C0            1 RES     
   25561 C0         822.4825  -682.1133  -590.4920 C0            1 RES     
   25562 C0         821.4421  -681.2164  -589.8174 C0            1 RES     
   25563 C0         822.0524  -679.9178  -589.2860 C0            1 RES     
   25564 H6         825.6474  -685.2108  -595.7584 H6            1 RES     
   25565 H6         826.7385  -685.2951  -597.1262 H6            1 RES     
   25566 H6         826.4290  -683.0323  -597.6468 H6            1 RES     
   25567 H6         823.8039  -684.5240  -596.9092 H6            1 RES     
   25568 H6         824.8406  -684.8109  -598.3443 H6            1 RES     
   25569 H6         824.2416  -682.5290  -599.2078 H6            1 RES     
   25570 H6         823.2150  -682.2691  -597.7550 H6            1 RES     
   25571 H6         821.7798  -682.9281  -599.5785 H6            1 RES     
   25572 H6         821.7601  -684.1717  -598.3056 H6            1 RES     
   25573 H6         821.7457  -685.1671  -600.5693 H6            1 RES     
   25574 H6         823.1823  -685.6816  -599.6427 H6            1 RES     
   25575 H6         824.6294  -684.1070  -600.8841 H6            1 RES     
   25576 H6         823.7518  -685.2282  -601.9745 H6            1 RES     
   25577 H6         822.9570  -682.3011  -601.3758 H6            1 RES     
   25578 H6         822.0763  -683.3980  -602.4997 H6            1 RES     
   25579 H6         823.5908  -681.7401  -603.6069 H6            1 RES     
   25580 H6         825.0032  -682.4324  -602.7302 H6            1 RES     
   25581 H6         824.6240  -684.6368  -603.9614 H6            1 RES     
   25582 H6         823.1633  -683.9151  -604.7306 H6            1 RES     
   25583 H6         824.5875  -682.2105  -605.8763 H6            1 RES     
   25584 H6         825.0158  -683.9052  -606.3044 H6            1 RES     
   25585 H6         826.5755  -682.1283  -604.3173 H6            1 RES     
   25586 H6         826.9469  -683.8534  -604.7254 H6            1 RES     
   25587 H6         827.0555  -682.5690  -605.9879 H6            1 RES     
   25588 H6         824.9665  -681.4164  -596.6686 H6            1 RES     
   25589 H6         826.2842  -681.7735  -595.6024 H6            1 RES     
   25590 H6         823.4190  -681.7129  -595.0283 H6            1 RES     
   25591 H6         823.9064  -683.4369  -594.8605 H6            1 RES     
   25592 H6         825.2629  -680.9839  -593.4811 H6            1 RES     
   25593 H6         825.8029  -682.6559  -593.5024 H6            1 RES     
   25594 H6         823.8677  -683.4871  -592.3402 H6            1 RES     
   25595 H6         824.9462  -682.4115  -591.4289 H6            1 RES     
   25596 H6         823.4619  -680.5319  -591.6652 H6            1 RES     
   25597 H6         822.2465  -681.5094  -592.5856 H6            1 RES     
   25598 H6         822.0178  -683.1017  -590.7096 H6            1 RES     
   25599 H6         823.3050  -682.2834  -589.7605 H6            1 RES     
   25600 H6         821.0327  -681.7714  -588.9448 H6            1 RES     
   25601 H6         820.6086  -680.9989  -590.5181 H6            1 RES     
   25602 H6         822.4484  -679.2887  -590.1074 H6            1 RES     
   25603 H6         821.2762  -679.3369  -588.7476 H6            1 RES     
   25604 H6         822.8765  -680.1460  -588.5737 H6            1 RES     
   25605 C0         828.2658  -686.2268  -595.1876 C0            1 RES     
   25606 C0         827.5032  -687.5691  -595.5913 C0            1 RES     
   25607 C0         828.2303  -688.7342  -594.8388 C0            1 RES     
   25608 C0         827.8391  -690.1591  -595.2802 C0            1 RES     
   25609 C0         828.5596  -691.2718  -594.4986 C0            1 RES     
   25610 C0         830.0955  -691.2718  -594.5982 C0            1 RES     
   25611 C0         830.6577  -691.2819  -596.0294 C0            1 RES     
   25612 C0         830.1748  -692.4780  -596.8686 C0            1 RES     
   25613 C0         830.7415  -692.4706  -598.2976 C0            1 RES     
   25614 C0         832.2646  -692.6887  -598.3389 C0            1 RES     
   25615 C0         832.8154  -692.8067  -599.7686 C0            1 RES     
   25616 C0         832.6762  -691.5168  -600.5772 C0            1 RES     
   25617 C0         825.9296  -687.7700  -595.5740 C0            1 RES     
   25618 C0         825.1170  -687.7927  -594.2484 C0            1 RES     
   25619 C0         824.2935  -686.5085  -594.0436 C0            1 RES     
   25620 C0         823.5108  -686.4011  -592.7454 C0            1 RES     
   25621 C0         822.2712  -687.2744  -592.6121 C0            1 RES     
   25622 C0         821.5655  -686.8606  -591.3045 C0            1 RES     
   25623 C0         820.2083  -687.5288  -591.0769 C0            1 RES     
   25624 C0         819.1567  -687.0665  -592.0867 C0            1 RES     
   25625 H6         828.6993  -686.3564  -594.1686 H6            1 RES     
   25626 H6         829.1925  -686.2443  -595.8047 H6            1 RES     
   25627 H6         827.7306  -687.6838  -596.6763 H6            1 RES     
   25628 H6         828.0391  -688.6370  -593.7483 H6            1 RES     
   25629 H6         829.3225  -688.6163  -595.0060 H6            1 RES     
   25630 H6         828.0268  -690.2708  -596.3687 H6            1 RES     
   25631 H6         826.7635  -690.3395  -595.0890 H6            1 RES     
   25632 H6         828.1750  -692.2468  -594.8671 H6            1 RES     
   25633 H6         828.2816  -691.2027  -593.4239 H6            1 RES     
   25634 H6         830.4718  -692.1643  -594.0519 H6            1 RES     
   25635 H6         830.4965  -690.3766  -594.0767 H6            1 RES     
   25636 H6         830.3794  -690.3377  -596.5446 H6            1 RES     
   25637 H6         831.7627  -691.3042  -595.9370 H6            1 RES     
   25638 H6         829.0699  -692.4278  -596.9626 H6            1 RES     
   25639 H6         830.4380  -693.4333  -596.3650 H6            1 RES     
   25640 H6         830.2573  -693.3014  -598.8556 H6            1 RES     
   25641 H6         830.4637  -691.5136  -598.7883 H6            1 RES     
   25642 H6         832.7989  -691.8661  -597.8204 H6            1 RES     
   25643 H6         832.4913  -693.6408  -597.8112 H6            1 RES     
   25644 H6         832.3056  -693.6386  -600.3013 H6            1 RES     
   25645 H6         833.8974  -693.0513  -599.7005 H6            1 RES     
   25646 H6         831.6113  -691.2469  -600.7262 H6            1 RES     
   25647 H6         833.2001  -690.6830  -600.0632 H6            1 RES     
   25648 H6         833.1354  -691.6605  -601.5779 H6            1 RES     
   25649 H6         825.7707  -688.7644  -596.0301 H6            1 RES     
   25650 H6         825.4061  -687.1822  -596.3512 H6            1 RES     
   25651 H6         824.3540  -688.5976  -594.3333 H6            1 RES     
   25652 H6         825.7694  -688.0428  -593.3873 H6            1 RES     
   25653 H6         823.6133  -686.3452  -594.9102 H6            1 RES     
   25654 H6         824.9582  -685.6545  -593.9763 H6            1 RES     
   25655 H6         824.1944  -686.5364  -591.8792 H6            1 RES     
   25656 H6         823.1180  -685.3709  -592.7385 H6            1 RES     
   25657 H6         821.6191  -687.0730  -593.4882 H6            1 RES     
   25658 H6         822.5386  -688.3515  -592.5946 H6            1 RES     
   25659 H6         822.2374  -687.1148  -590.4553 H6            1 RES     
   25660 H6         821.4025  -685.7583  -591.2856 H6            1 RES     
   25661 H6         819.8559  -687.2255  -590.0666 H6            1 RES     
   25662 H6         820.3170  -688.6313  -591.0988 H6            1 RES     
   25663 H6         819.4233  -687.3719  -593.1180 H6            1 RES     
   25664 H6         818.1784  -687.5229  -591.8314 H6            1 RES     
   25665 H6         819.0484  -685.9602  -592.0507 H6            1 RES     
   25666 C0         835.9888  -679.5948  -603.8765 C0            1 RES     
   25667 C1         835.3897  -679.6434  -602.4537 C1            1 RES     
   25668 C1         836.1678  -679.0033  -601.5427 C1            1 RES     
   25669 S2         835.5936  -679.1162  -599.9743 S2            1 RES     
   25670 C1         834.2784  -680.0808  -600.4545 C1            1 RES     
   25671 C1         834.3131  -680.3012  -601.8358 C1            1 RES     
   25672 C1         837.3204  -678.5126  -602.1935 C1            1 RES     
   25673 C1         837.2981  -678.9013  -603.4970 C1            1 RES     
   25674 C1         838.4720  -678.5756  -604.1657 C1            1 RES     
   25675 C1         839.3552  -677.8942  -603.3112 C1            1 RES     
   25676 S2         838.7091  -677.7107  -601.7516 S2            1 RES     
   25677 H3         833.6083  -680.9507  -602.3192 H3            1 RES     
   25678 H3         838.6772  -678.8195  -605.2012 H3            1 RES     
   25679 N4         842.3740  -675.7673  -603.9540 N4            1 RES     
   25680 C1         841.0830  -676.1299  -603.6971 C1            1 RES     
   25681 C1         840.7188  -677.4858  -603.6297 C1            1 RES     
   25682 C1         841.7167  -678.4453  -603.8096 C1            1 RES     
   25683 N4         841.5112  -679.7839  -603.7128 N4            1 RES     
   25684 S2         843.0303  -680.3900  -603.9511 S2            1 RES     
   25685 N4         843.9623  -679.0417  -604.1787 N4            1 RES     
   25686 C1         843.0534  -678.0430  -604.0557 C1            1 RES     
   25687 C1         843.3615  -676.6878  -604.1395 C1            1 RES     
   25688 H5         840.3318  -675.3581  -603.5530 H5            1 RES     
   25689 C0         835.2795  -678.7429  -604.9873 C0            1 RES     
   25690 C0         835.1754  -677.1808  -605.1629 C0            1 RES     
   25691 C0         834.2283  -676.9703  -606.3962 C0            1 RES     
   25692 C0         833.9977  -675.5245  -606.8533 C0            1 RES     
   25693 C0         833.0100  -675.4352  -608.0405 C0            1 RES     
   25694 C0         833.4591  -676.1330  -609.3432 C0            1 RES     
   25695 C0         834.8302  -675.6845  -609.8791 C0            1 RES     
   25696 C0         834.9082  -674.1705  -610.1440 C0            1 RES     
   25697 C0         836.2941  -673.7173  -610.6252 C0            1 RES     
   25698 C0         836.6572  -674.2562  -612.0192 C0            1 RES     
   25699 C0         837.9943  -673.7047  -612.5390 C0            1 RES     
   25700 C0         839.1972  -674.1656  -611.7151 C0            1 RES     
   25701 C0         834.7597  -676.2923  -603.9452 C0            1 RES     
   25702 C0         833.3301  -676.4475  -603.3410 C0            1 RES     
   25703 C0         833.4552  -676.8434  -601.8667 C0            1 RES     
   25704 C0         832.2095  -677.3661  -601.1568 C0            1 RES     
   25705 C0         831.2120  -676.3199  -600.6816 C0            1 RES     
   25706 C0         830.0668  -677.0576  -599.9567 C0            1 RES     
   25707 C0         829.0719  -676.1348  -599.2489 C0            1 RES     
   25708 C0         829.6960  -675.4204  -598.0483 C0            1 RES     
   25709 H6         834.2722  -679.0720  -605.0165 H6            1 RES     
   25710 H6         835.7643  -679.0715  -605.9342 H6            1 RES     
   25711 H6         836.1936  -676.8235  -605.4354 H6            1 RES     
   25712 H6         833.2303  -677.4054  -606.1703 H6            1 RES     
   25713 H6         834.6552  -677.5369  -607.2513 H6            1 RES     
   25714 H6         834.9649  -675.0477  -607.1121 H6            1 RES     
   25715 H6         833.5360  -674.9493  -606.0255 H6            1 RES     
   25716 H6         832.8243  -674.3623  -608.2545 H6            1 RES     
   25717 H6         832.0316  -675.8695  -607.7373 H6            1 RES     
   25718 H6         832.6865  -675.9414  -610.1209 H6            1 RES     
   25719 H6         833.4914  -677.2325  -609.1870 H6            1 RES     
   25720 H6         835.6193  -675.9732  -609.1531 H6            1 RES     
   25721 H6         835.0152  -676.2432  -610.8199 H6            1 RES     
   25722 H6         834.7193  -673.6305  -609.1939 H6            1 RES     
   25723 H6         834.1310  -673.8668  -610.8792 H6            1 RES     
   25724 H6         836.2848  -672.6066  -610.6755 H6            1 RES     
   25725 H6         837.0483  -674.0252  -609.8709 H6            1 RES     
   25726 H6         836.7045  -675.3649  -612.0170 H6            1 RES     
   25727 H6         835.8622  -673.9404  -612.7294 H6            1 RES     
   25728 H6         837.9608  -672.5935  -612.5611 H6            1 RES     
   25729 H6         838.1357  -674.0664  -613.5803 H6            1 RES     
   25730 H6         839.1420  -673.7899  -610.6735 H6            1 RES     
   25731 H6         839.2515  -675.2750  -611.7044 H6            1 RES     
   25732 H6         840.1284  -673.7688  -612.1709 H6            1 RES     
   25733 H6         834.8622  -675.2300  -604.2543 H6            1 RES     
   25734 H6         835.5410  -676.3899  -603.1614 H6            1 RES     
   25735 H6         832.7714  -675.4863  -603.3963 H6            1 RES     
   25736 H6         832.7588  -677.2122  -603.9054 H6            1 RES     
   25737 H6         833.9719  -676.0670  -601.2641 H6            1 RES     
   25738 H6         834.0920  -677.7019  -601.8969 H6            1 RES     
   25739 H6         831.7242  -678.1128  -601.7901 H6            1 RES     
   25740 H6         832.5677  -677.8939  -600.2438 H6            1 RES     
   25741 H6         831.7518  -675.6447  -599.9842 H6            1 RES     
   25742 H6         830.8114  -675.7256  -601.5298 H6            1 RES     
   25743 H6         829.5182  -677.6659  -600.7112 H6            1 RES     
   25744 H6         830.4763  -677.7588  -599.1943 H6            1 RES     
   25745 H6         828.2411  -676.7661  -598.8635 H6            1 RES     
   25746 H6         828.6510  -675.3994  -599.9663 H6            1 RES     
   25747 H6         830.5112  -674.7380  -598.3599 H6            1 RES     
   25748 H6         828.9205  -674.8204  -597.5303 H6            1 RES     
   25749 H6         830.1016  -676.1657  -597.3281 H6            1 RES     
   25750 C0         836.1607  -681.1063  -604.3027 C0            1 RES     
   25751 C0         835.3409  -681.8468  -605.4541 C0            1 RES     
   25752 C0         835.4366  -683.3799  -605.1491 C0            1 RES     
   25753 C0         834.9449  -684.3148  -606.2726 C0            1 RES     
   25754 C0         835.0349  -685.8102  -605.9209 C0            1 RES     
   25755 C0         836.4451  -686.3385  -605.6027 C0            1 RES     
   25756 C0         837.5063  -686.0583  -606.6797 C0            1 RES     
   25757 C0         837.1395  -686.6245  -608.0628 C0            1 RES     
   25758 C0         838.2078  -686.3316  -609.1288 C0            1 RES     
   25759 C0         839.5354  -687.0637  -608.8631 C0            1 RES     
   25760 C0         840.5619  -686.8732  -609.9905 C0            1 RES     
   25761 C0         841.0407  -685.4283  -610.1327 C0            1 RES     
   25762 C0         833.8848  -681.4499  -605.9431 C0            1 RES     
   25763 C0         832.6343  -681.6301  -605.0367 C0            1 RES     
   25764 C0         832.1033  -680.2898  -604.4972 C0            1 RES     
   25765 C0         830.9189  -680.3592  -603.5474 C0            1 RES     
   25766 C0         829.5665  -680.7055  -604.1541 C0            1 RES     
   25767 C0         828.5151  -680.5417  -603.0375 C0            1 RES     
   25768 C0         827.0662  -680.7003  -603.5019 C0            1 RES     
   25769 C0         826.6261  -679.5666  -604.4293 C0            1 RES     
   25770 H6         836.1192  -681.7293  -603.3791 H6            1 RES     
   25771 H6         837.2262  -681.2475  -604.5935 H6            1 RES     
   25772 H6         835.9442  -681.6541  -606.3712 H6            1 RES     
   25773 H6         834.8596  -683.6030  -604.2258 H6            1 RES     
   25774 H6         836.5034  -683.6204  -604.9518 H6            1 RES     
   25775 H6         835.5148  -684.1038  -607.2017 H6            1 RES     
   25776 H6         833.8697  -684.1427  -606.4734 H6            1 RES     
   25777 H6         834.6201  -686.3842  -606.7769 H6            1 RES     
   25778 H6         834.3803  -686.0203  -605.0465 H6            1 RES     
   25779 H6         836.3689  -687.4362  -605.4422 H6            1 RES     
   25780 H6         836.7968  -685.8924  -604.6481 H6            1 RES     
   25781 H6         837.6693  -684.9626  -606.7646 H6            1 RES     
   25782 H6         838.4516  -686.5144  -606.3211 H6            1 RES     
   25783 H6         836.2011  -686.1439  -608.4101 H6            1 RES     
   25784 H6         836.9652  -687.7203  -607.9967 H6            1 RES     
   25785 H6         837.8104  -686.6790  -610.1073 H6            1 RES     
   25786 H6         838.3643  -685.2335  -609.1869 H6            1 RES     
   25787 H6         839.9911  -686.7282  -607.9088 H6            1 RES     
   25788 H6         839.3198  -688.1517  -608.7846 H6            1 RES     
   25789 H6         840.1315  -687.2208  -610.9547 H6            1 RES     
   25790 H6         841.4469  -687.5044  -609.7593 H6            1 RES     
   25791 H6         840.2083  -684.7535  -610.4170 H6            1 RES     
   25792 H6         841.4915  -685.0776  -609.1799 H6            1 RES     
   25793 H6         841.8114  -685.3747  -610.9302 H6            1 RES     
   25794 H6         833.7016  -682.0929  -606.8234 H6            1 RES     
   25795 H6         833.8527  -680.4815  -606.4770 H6            1 RES     
   25796 H6         831.8081  -682.0165  -605.6734 H6            1 RES     
   25797 H6         832.8234  -682.3829  -604.2448 H6            1 RES     
   25798 H6         831.8722  -679.6000  -605.3404 H6            1 RES     
   25799 H6         832.8595  -679.8189  -603.8791 H6            1 RES     
   25800 H6         831.1594  -681.0260  -602.6910 H6            1 RES     
   25801 H6         830.7937  -679.3278  -603.1785 H6            1 RES     
   25802 H6         829.3728  -679.9898  -604.9808 H6            1 RES     
   25803 H6         829.5597  -681.7400  -604.5563 H6            1 RES     
   25804 H6         828.7254  -681.3010  -602.2525 H6            1 RES     
   25805 H6         828.6064  -679.5363  -602.5655 H6            1 RES     
   25806 H6         826.4224  -680.6586  -602.5960 H6            1 RES     
   25807 H6         826.9276  -681.6850  -603.9908 H6            1 RES     
   25808 H6         827.2010  -679.5715  -605.3766 H6            1 RES     
   25809 H6         825.5514  -679.6908  -604.6749 H6            1 RES     
   25810 H6         826.7603  -678.5837  -603.9266 H6            1 RES     
   25811 C0         847.9339  -675.2024  -606.6821 C0            1 RES     
   25812 C1         846.8300  -675.5168  -605.6486 C1            1 RES     
   25813 C1         847.3090  -675.5639  -604.3783 C1            1 RES     
   25814 S2         846.1560  -675.9934  -603.2432 S2            1 RES     
   25815 C1         844.9566  -676.1788  -604.4340 C1            1 RES     
   25816 C1         845.4807  -675.9042  -605.7019 C1            1 RES     
   25817 C1         848.7020  -675.3372  -604.4086 C1            1 RES     
   25818 C1         849.1075  -675.2142  -605.7014 C1            1 RES     
   25819 C1         850.4900  -675.1317  -605.8160 C1            1 RES     
   25820 C1         851.0941  -675.1621  -604.5477 C1            1 RES     
   25821 S2         849.9460  -675.3060  -603.3049 S2            1 RES     
   25822 H3         844.8973  -676.0400  -606.5927 H3            1 RES     
   25823 H3         851.0254  -675.0595  -606.7551 H3            1 RES     
   25824 N4         854.5125  -674.2085  -603.3414 N4            1 RES     
   25825 C1         853.1789  -674.1375  -603.6251 C1            1 RES     
   25826 C1         852.5269  -675.1987  -604.2766 C1            1 RES     
   25827 C1         853.2757  -676.3310  -604.6024 C1            1 RES     
   25828 N4         852.7577  -677.4455  -605.1794 N4            1 RES     
   25829 S2         854.0730  -678.4432  -605.2581 S2            1 RES     
   25830 N4         855.2932  -677.5413  -604.5976 N4            1 RES     
   25831 C1         854.6547  -676.3881  -604.2793 C1            1 RES     
   25832 C1         855.2629  -675.3012  -603.6568 C1            1 RES     
   25833 H5         852.6227  -673.2455  -603.3502 H5            1 RES     
   25834 C0         847.9253  -673.8225  -607.4295 C0            1 RES     
   25835 C0         848.2474  -672.3742  -606.8998 C0            1 RES     
   25836 C0         847.9324  -671.4190  -608.1043 C0            1 RES     
   25837 C0         848.2262  -669.9275  -607.9003 C0            1 RES     
   25838 C0         847.8301  -669.0780  -609.1308 C0            1 RES     
   25839 C0         848.5876  -669.3950  -610.4391 C0            1 RES     
   25840 C0         850.1212  -669.3246  -610.3332 C0            1 RES     
   25841 C0         850.6302  -667.9536  -609.8536 C0            1 RES     
   25842 C0         852.1566  -667.9035  -609.6952 C0            1 RES     
   25843 C0         852.9084  -668.0201  -611.0319 C0            1 RES     
   25844 C0         854.4282  -667.8538  -610.8746 C0            1 RES     
   25845 C0         855.0766  -668.9776  -610.0653 C0            1 RES     
   25846 C0         847.5952  -671.8754  -605.5690 C0            1 RES     
   25847 C0         846.0476  -671.6947  -605.4992 C0            1 RES     
   25848 C0         845.4930  -672.5923  -604.3890 C0            1 RES     
   25849 C0         843.9866  -672.8328  -604.3472 C0            1 RES     
   25850 C0         843.1415  -671.7279  -603.7305 C0            1 RES     
   25851 C0         841.6712  -672.1963  -603.7468 C0            1 RES     
   25852 C0         840.7098  -671.2794  -602.9871 C0            1 RES     
   25853 C0         840.9541  -671.3060  -601.4768 C0            1 RES     
   25854 H6         846.9646  -673.7276  -607.8676 H6            1 RES     
   25855 H6         848.6568  -673.9566  -608.2581 H6            1 RES     
   25856 H6         849.3424  -672.3444  -606.7033 H6            1 RES     
   25857 H6         846.8564  -671.5073  -608.3704 H6            1 RES     
   25858 H6         848.5235  -671.7692  -608.9774 H6            1 RES     
   25859 H6         849.2968  -669.7805  -607.6513 H6            1 RES     
   25860 H6         847.6167  -669.5477  -607.0556 H6            1 RES     
   25861 H6         847.9859  -668.0092  -608.8766 H6            1 RES     
   25862 H6         846.7415  -669.1996  -609.3256 H6            1 RES     
   25863 H6         848.2455  -668.6775  -611.2180 H6            1 RES     
   25864 H6         848.3115  -670.4106  -610.7950 H6            1 RES     
   25865 H6         850.4768  -670.1141  -609.6380 H6            1 RES     
   25866 H6         850.5318  -669.5497  -611.3394 H6            1 RES     
   25867 H6         850.2084  -667.7465  -608.8491 H6            1 RES     
   25868 H6         850.2922  -667.1524  -610.5467 H6            1 RES     
   25869 H6         852.4141  -666.9233  -609.2379 H6            1 RES     
   25870 H6         852.4657  -668.7066  -608.9937 H6            1 RES     
   25871 H6         852.7041  -668.9960  -611.5192 H6            1 RES     
   25872 H6         852.5473  -667.2104  -611.7029 H6            1 RES     
   25873 H6         854.6532  -666.8740  -610.3995 H6            1 RES     
   25874 H6         854.8828  -667.8580  -611.8887 H6            1 RES     
   25875 H6         854.7019  -668.9928  -609.0220 H6            1 RES     
   25876 H6         854.8752  -669.9595  -610.5439 H6            1 RES     
   25877 H6         856.1747  -668.8183  -610.0300 H6            1 RES     
   25878 H6         848.0434  -670.8885  -605.3250 H6            1 RES     
   25879 H6         847.9636  -672.5170  -604.7401 H6            1 RES     
   25880 H6         845.7835  -670.6405  -605.2581 H6            1 RES     
   25881 H6         845.5896  -671.9508  -606.4762 H6            1 RES     
   25882 H6         845.8899  -672.3193  -603.3885 H6            1 RES     
   25883 H6         845.8832  -673.5567  -604.6361 H6            1 RES     
   25884 H6         843.6364  -673.0811  -605.3521 H6            1 RES     
   25885 H6         843.8312  -673.7357  -603.7137 H6            1 RES     
   25886 H6         843.4993  -671.5836  -602.6890 H6            1 RES     
   25887 H6         843.2483  -670.7745  -604.2897 H6            1 RES     
   25888 H6         841.3428  -672.2599  -604.8091 H6            1 RES     
   25889 H6         841.5823  -673.2157  -603.3068 H6            1 RES     
   25890 H6         839.6771  -671.6536  -603.1621 H6            1 RES     
   25891 H6         840.7785  -670.2418  -603.3762 H6            1 RES     
   25892 H6         841.9553  -670.9075  -601.2198 H6            1 RES     
   25893 H6         840.1915  -670.6827  -600.9672 H6            1 RES     
   25894 H6         840.8686  -672.3475  -601.0938 H6            1 RES     
   25895 C0         847.9197  -676.4236  -607.6841 C0            1 RES     
   25896 C0         847.4755  -676.3649  -609.2156 C0            1 RES     
   25897 C0         847.1016  -677.8297  -609.6241 C0            1 RES     
   25898 C0         846.8964  -678.0688  -611.1337 C0            1 RES     
   25899 C0         846.5074  -679.5152  -611.4868 C0            1 RES     
   25900 C0         847.5244  -680.5982  -611.0847 C0            1 RES     
   25901 C0         848.9565  -680.3726  -611.5974 C0            1 RES     
   25902 C0         849.0463  -680.2491  -613.1287 C0            1 RES     
   25903 C0         850.4831  -680.0189  -613.6245 C0            1 RES     
   25904 C0         851.4018  -681.2295  -613.3810 C0            1 RES     
   25905 C0         852.8028  -681.0512  -613.9864 C0            1 RES     
   25906 C0         853.6062  -679.9293  -613.3284 C0            1 RES     
   25907 C0         846.4555  -675.3195  -609.8348 C0            1 RES     
   25908 C0         844.9435  -675.3305  -609.4718 C0            1 RES     
   25909 C0         844.5548  -674.1647  -608.5449 C0            1 RES     
   25910 C0         843.1094  -674.1190  -608.0775 C0            1 RES     
   25911 C0         842.0634  -673.7130  -609.1061 C0            1 RES     
   25912 C0         840.7230  -673.5723  -608.3561 C0            1 RES     
   25913 C0         839.5765  -673.0180  -609.2038 C0            1 RES     
   25914 C0         839.7987  -671.5568  -609.5968 C0            1 RES     
   25915 H6         847.3822  -677.2660  -607.1896 H6            1 RES     
   25916 H6         848.9537  -676.8355  -607.7163 H6            1 RES     
   25917 H6         848.4166  -676.1024  -609.7518 H6            1 RES     
   25918 H6         846.1748  -678.1303  -609.0894 H6            1 RES     
   25919 H6         847.9233  -678.4966  -609.2848 H6            1 RES     
   25920 H6         847.8165  -677.7741  -611.6805 H6            1 RES     
   25921 H6         846.0535  -677.4567  -611.5090 H6            1 RES     
   25922 H6         846.3459  -679.5631  -612.5849 H6            1 RES     
   25923 H6         845.5334  -679.7592  -611.0083 H6            1 RES     
   25924 H6         847.1503  -681.5741  -611.4644 H6            1 RES     
   25925 H6         847.5627  -680.6718  -609.9769 H6            1 RES     
   25926 H6         849.3780  -679.4564  -611.1314 H6            1 RES     
   25927 H6         849.5586  -681.2368  -611.2502 H6            1 RES     
   25928 H6         848.4513  -679.3700  -613.4535 H6            1 RES     
   25929 H6         848.6220  -681.1546  -613.6139 H6            1 RES     
   25930 H6         850.4354  -679.8350  -614.7200 H6            1 RES     
   25931 H6         850.8890  -679.1075  -613.1362 H6            1 RES     
   25932 H6         851.5086  -681.4366  -612.2962 H6            1 RES     
   25933 H6         850.9375  -682.1176  -613.8628 H6            1 RES     
   25934 H6         852.7199  -680.8605  -615.0785 H6            1 RES     
   25935 H6         853.3623  -682.0006  -613.8427 H6            1 RES     
   25936 H6         853.1241  -678.9431  -613.4838 H6            1 RES     
   25937 H6         853.7124  -680.1209  -612.2393 H6            1 RES     
   25938 H6         854.6190  -679.8896  -613.7816 H6            1 RES     
   25939 H6         846.4949  -675.5035  -610.9241 H6            1 RES     
   25940 H6         846.8508  -674.2866  -609.8602 H6            1 RES     
   25941 H6         844.3701  -675.1415  -610.4061 H6            1 RES     
   25942 H6         844.6348  -676.3238  -609.0878 H6            1 RES     
   25943 H6         844.8322  -673.1925  -609.0122 H6            1 RES     
   25944 H6         845.0916  -674.2486  -607.6067 H6            1 RES     
   25945 H6         842.8403  -675.0793  -607.5862 H6            1 RES     
   25946 H6         843.0814  -673.3098  -607.3293 H6            1 RES     
   25947 H6         842.3734  -672.7379  -609.5378 H6            1 RES     
   25948 H6         841.9860  -674.4651  -609.9187 H6            1 RES     
   25949 H6         840.4344  -674.5768  -607.9753 H6            1 RES     
   25950 H6         840.8420  -672.9005  -607.4749 H6            1 RES     
   25951 H6         838.6556  -673.0593  -608.5816 H6            1 RES     
   25952 H6         839.4265  -673.6488  -610.1023 H6            1 RES     
   25953 H6         840.6825  -671.4441  -610.2556 H6            1 RES     
   25954 H6         838.9082  -671.1854  -610.1442 H6            1 RES     
   25955 H6         839.9390  -670.9307  -608.6884 H6            1 RES     
   25956 C0         860.6716  -674.8141  -603.9524 C0            1 RES     
   25957 C1         859.2109  -675.0387  -603.5034 C1            1 RES     
   25958 C1         859.1296  -675.6940  -602.3163 C1            1 RES     
   25959 S2         857.5598  -676.0351  -601.8456 S2            1 RES     
   25960 C1         856.9152  -675.3441  -603.2591 C1            1 RES     
   25961 C1         857.9414  -674.8605  -604.0781 C1            1 RES     
   25962 C1         860.4353  -675.9981  -601.8741 C1            1 RES     
   25963 C1         861.3318  -675.5933  -602.8140 C1            1 RES     
   25964 C1         862.6292  -675.9889  -602.5116 C1            1 RES     
   25965 C1         862.6642  -676.6750  -601.2859 C1            1 RES     
   25966 S2         861.1197  -676.8085  -600.5929 S2            1 RES     
   25967 H3         857.7400  -674.4561  -605.0518 H3            1 RES     
   25968 H3         863.4917  -675.7980  -603.1390 H3            1 RES     
   25969 N4         865.4538  -677.5207  -598.9294 N4            1 RES     
   25970 C1         864.3903  -676.8727  -599.4891 C1            1 RES     
   25971 C1         863.8287  -677.3253  -600.6955 C1            1 RES     
   25972 C1         864.3742  -678.4651  -601.2889 C1            1 RES     
   25973 N4         863.8912  -679.0386  -602.4209 N4            1 RES     
   25974 S2         864.8753  -680.3552  -602.5943 S2            1 RES     
   25975 N4         865.9052  -680.2514  -601.3032 N4            1 RES     
   25976 C1         865.4659  -679.1314  -600.6777 C1            1 RES     
   25977 C1         866.0054  -678.6306  -599.4958 C1            1 RES     
   25978 H5         863.9836  -675.9934  -598.9971 H5            1 RES     
   25979 C0         861.2628  -673.3605  -603.9675 C0            1 RES     
   25980 C0         861.6634  -672.4106  -602.7762 C0            1 RES     
   25981 C0         862.0665  -671.0536  -603.4533 C0            1 RES     
   25982 C0         862.5791  -669.9433  -602.5276 C0            1 RES     
   25983 C0         862.8966  -668.6389  -603.2961 C0            1 RES     
   25984 C0         864.0159  -668.7379  -604.3559 C0            1 RES     
   25985 C0         865.3590  -669.2755  -603.8314 C0            1 RES     
   25986 C0         865.9290  -668.4435  -602.6688 C0            1 RES     
   25987 C0         867.2406  -669.0142  -602.1106 C0            1 RES     
   25988 C0         868.4104  -668.9282  -603.1055 C0            1 RES     
   25989 C0         869.7423  -669.3957  -602.4975 C0            1 RES     
   25990 C0         869.7547  -670.8838  -602.1460 C0            1 RES     
   25991 C0         860.6696  -672.2009  -601.5874 C0            1 RES     
   25992 C0         859.3006  -671.5019  -601.8521 C0            1 RES     
   25993 C0         858.1710  -672.4580  -601.4574 C0            1 RES     
   25994 C0         856.7566  -672.1284  -601.9258 C0            1 RES     
   25995 C0         856.0049  -671.0775  -601.1220 C0            1 RES     
   25996 C0         854.5950  -670.9378  -601.7336 C0            1 RES     
   25997 C0         853.6417  -670.0563  -600.9234 C0            1 RES     
   25998 C0         853.2614  -670.6909  -599.5841 C0            1 RES     
   25999 H6         860.5981  -672.7752  -604.5500 H6            1 RES     
   26000 H6         862.2113  -673.4579  -604.5425 H6            1 RES     
   26001 H6         862.5704  -672.8539  -602.3079 H6            1 RES     
   26002 H6         861.1907  -670.6436  -604.0024 H6            1 RES     
   26003 H6         862.8592  -671.2707  -604.2009 H6            1 RES     
   26004 H6         863.4698  -670.2946  -601.9680 H6            1 RES     
   26005 H6         861.7877  -669.6840  -601.7958 H6            1 RES     
   26006 H6         863.1727  -667.8606  -602.5550 H6            1 RES     
   26007 H6         861.9742  -668.2778  -603.8027 H6            1 RES     
   26008 H6         864.1751  -667.7234  -604.7848 H6            1 RES     
   26009 H6         863.6841  -669.3910  -605.1911 H6            1 RES     
   26010 H6         865.2288  -670.3281  -603.5027 H6            1 RES     
   26011 H6         866.0705  -669.2725  -604.6831 H6            1 RES     
   26012 H6         865.2042  -668.4574  -601.8295 H6            1 RES     
   26013 H6         866.0767  -667.3879  -602.9858 H6            1 RES     
   26014 H6         867.5083  -668.4199  -601.2099 H6            1 RES     
   26015 H6         867.0634  -670.0638  -601.7950 H6            1 RES     
   26016 H6         868.2030  -669.5278  -604.0160 H6            1 RES     
   26017 H6         868.5307  -667.8645  -603.4059 H6            1 RES     
   26018 H6         869.9738  -668.7960  -601.5902 H6            1 RES     
   26019 H6         870.5452  -669.2153  -603.2445 H6            1 RES     
   26020 H6         869.0074  -671.1205  -601.3619 H6            1 RES     
   26021 H6         869.5450  -671.4928  -603.0510 H6            1 RES     
   26022 H6         870.7564  -671.1608  -601.7558 H6            1 RES     
   26023 H6         861.1925  -671.5969  -600.8153 H6            1 RES     
   26024 H6         860.5310  -673.1767  -601.0745 H6            1 RES     
   26025 H6         859.2038  -670.5779  -601.2390 H6            1 RES     
   26026 H6         859.2183  -671.2176  -602.9209 H6            1 RES     
   26027 H6         858.1932  -672.7135  -600.3770 H6            1 RES     
   26028 H6         858.4026  -673.3486  -602.0020 H6            1 RES     
   26029 H6         856.7832  -671.8671  -602.9866 H6            1 RES     
   26030 H6         856.1692  -673.0704  -601.8351 H6            1 RES     
   26031 H6         855.9476  -671.4440  -600.0752 H6            1 RES     
   26032 H6         856.5309  -670.0997  -601.1393 H6            1 RES     
   26033 H6         854.7045  -670.5052  -602.7539 H6            1 RES     
   26034 H6         854.1171  -671.9380  -601.8431 H6            1 RES     
   26035 H6         852.7056  -669.9406  -601.5128 H6            1 RES     
   26036 H6         854.0856  -669.0505  -600.7677 H6            1 RES     
   26037 H6         854.1426  -670.8023  -598.9221 H6            1 RES     
   26038 H6         852.5187  -670.0493  -599.0678 H6            1 RES     
   26039 H6         852.8039  -671.6917  -599.7512 H6            1 RES     
   26040 C0         860.7814  -675.5174  -605.3627 C0            1 RES     
   26041 C0         860.9989  -674.7745  -606.7580 C0            1 RES     
   26042 C0         860.5008  -675.7616  -607.8670 C0            1 RES     
   26043 C0         860.8569  -675.3709  -609.3157 C0            1 RES     
   26044 C0         860.3278  -676.3558  -610.3731 C0            1 RES     
   26045 C0         860.8380  -677.8030  -610.2535 C0            1 RES     
   26046 C0         862.3676  -677.9555  -610.2128 C0            1 RES     
   26047 C0         863.0760  -677.3522  -611.4385 C0            1 RES     
   26048 C0         864.6042  -677.5083  -611.3800 C0            1 RES     
   26049 C0         865.0606  -678.9749  -611.4792 C0            1 RES     
   26050 C0         866.5884  -679.1249  -611.5469 C0            1 RES     
   26051 C0         867.2959  -678.6775  -610.2677 C0            1 RES     
   26052 C0         860.5628  -673.2835  -607.0804 C0            1 RES     
   26053 C0         859.0682  -672.8646  -607.1727 C0            1 RES     
   26054 C0         858.6158  -672.0356  -605.9572 C0            1 RES     
   26055 C0         857.1521  -671.6283  -605.9174 C0            1 RES     
   26056 C0         856.7119  -670.5386  -606.8849 C0            1 RES     
   26057 C0         855.2522  -670.1854  -606.5336 C0            1 RES     
   26058 C0         854.6841  -668.9935  -607.3061 C0            1 RES     
   26059 C0         855.3604  -667.6766  -606.9217 C0            1 RES     
   26060 H6         859.9209  -676.2192  -605.4634 H6            1 RES     
   26061 H6         861.6260  -676.2409  -605.3052 H6            1 RES     
   26062 H6         862.1076  -674.7071  -606.8494 H6            1 RES     
   26063 H6         859.3970  -675.8666  -607.7904 H6            1 RES     
   26064 H6         860.9535  -676.7560  -607.6640 H6            1 RES     
   26065 H6         861.9582  -675.2644  -609.4071 H6            1 RES     
   26066 H6         860.3874  -674.4037  -609.5799 H6            1 RES     
   26067 H6         860.6039  -675.9583  -611.3731 H6            1 RES     
   26068 H6         859.2165  -676.3753  -610.3312 H6            1 RES     
   26069 H6         860.4368  -678.3776  -611.1169 H6            1 RES     
   26070 H6         860.4212  -678.2636  -609.3325 H6            1 RES     
   26071 H6         862.7640  -677.4796  -609.2904 H6            1 RES     
   26072 H6         862.5774  -679.0427  -610.1499 H6            1 RES     
   26073 H6         862.8670  -676.2626  -611.4737 H6            1 RES     
   26074 H6         862.6869  -677.8113  -612.3731 H6            1 RES     
   26075 H6         865.0322  -676.9533  -612.2431 H6            1 RES     
   26076 H6         864.9769  -677.0386  -610.4451 H6            1 RES     
   26077 H6         864.6844  -679.5680  -610.6202 H6            1 RES     
   26078 H6         864.6384  -679.4054  -612.4134 H6            1 RES     
   26079 H6         866.9851  -678.5521  -612.4132 H6            1 RES     
   26080 H6         866.8211  -680.1997  -611.7072 H6            1 RES     
   26081 H6         867.1450  -677.5952  -610.0805 H6            1 RES     
   26082 H6         866.9210  -679.2585  -609.3984 H6            1 RES     
   26083 H6         868.3867  -678.8576  -610.3704 H6            1 RES     
   26084 H6         860.9847  -673.0803  -608.0818 H6            1 RES     
   26085 H6         861.1545  -672.5274  -606.5311 H6            1 RES     
   26086 H6         858.9648  -672.1683  -608.0339 H6            1 RES     
   26087 H6         858.4219  -673.7424  -607.3758 H6            1 RES     
   26088 H6         859.2621  -671.1359  -605.8429 H6            1 RES     
   26089 H6         858.7083  -672.6292  -605.0546 H6            1 RES     
   26090 H6         856.5064  -672.5291  -606.0036 H6            1 RES     
   26091 H6         857.0129  -671.1777  -604.9209 H6            1 RES     
   26092 H6         857.3741  -669.6606  -606.7303 H6            1 RES     
   26093 H6         856.7950  -670.8790  -607.9380 H6            1 RES     
   26094 H6         854.6226  -671.0790  -606.7392 H6            1 RES     
   26095 H6         855.1615  -669.9533  -605.4473 H6            1 RES     
   26096 H6         853.6087  -668.9068  -607.0361 H6            1 RES     
   26097 H6         854.7630  -669.1727  -608.3967 H6            1 RES     
   26098 H6         856.4329  -667.6753  -607.2003 H6            1 RES     
   26099 H6         854.8625  -666.8403  -607.4539 H6            1 RES     
   26100 H6         855.2680  -667.5013  -605.8274 H6            1 RES     
   26101 C0         871.0577  -680.0890  -598.1084 C0            1 RES     
   26102 C1         869.5278  -679.9031  -598.2105 C1            1 RES     
   26103 C1         868.8443  -680.8499  -597.5165 C1            1 RES     
   26104 S2         867.1826  -680.7322  -597.6814 S2            1 RES     
   26105 C1         867.3148  -679.4104  -598.7427 C1            1 RES     
   26106 C1         868.6594  -679.0855  -598.9528 C1            1 RES     
   26107 C1         869.7690  -681.7439  -596.9346 C1            1 RES     
   26108 C1         871.0278  -681.3977  -597.3174 C1            1 RES     
   26109 C1         871.9797  -682.3193  -596.8983 C1            1 RES     
   26110 C1         871.3780  -683.3486  -596.1548 C1            1 RES     
   26111 S2         869.6977  -683.1376  -596.0297 S2            1 RES     
   26112 H3         868.9514  -678.3256  -599.6526 H3            1 RES     
   26113 H3         873.0381  -682.2534  -597.1204 H3            1 RES     
   26114 N4         872.7564  -685.9159  -593.7970 N4            1 RES     
   26115 C1         872.1701  -684.7730  -594.2598 C1            1 RES     
   26116 C1         872.0419  -684.5411  -595.6402 C1            1 RES     
   26117 C1         872.5091  -685.5204  -596.5186 C1            1 RES     
   26118 N4         872.3951  -685.4475  -597.8696 N4            1 RES     
   26119 S2         873.0499  -686.8854  -598.3548 S2            1 RES     
   26120 N4         873.4858  -687.6194  -596.9372 N4            1 RES     
   26121 C1         873.0963  -686.7072  -596.0126 C1            1 RES     
   26122 C1         873.2251  -686.8809  -594.6371 C1            1 RES     
   26123 H5         871.8088  -684.0345  -593.5494 H5            1 RES     
   26124 C0         871.9135  -679.0448  -597.3085 C0            1 RES     
   26125 C0         872.0141  -678.7828  -595.7583 C0            1 RES     
   26126 C0         872.9403  -677.5241  -595.6157 C0            1 RES     
   26127 C0         873.2807  -677.0729  -594.1899 C0            1 RES     
   26128 C0         874.1546  -675.7967  -594.1715 C0            1 RES     
   26129 C0         875.5478  -675.9258  -594.8259 C0            1 RES     
   26130 C0         876.4219  -677.0637  -594.2697 C0            1 RES     
   26131 C0         876.6589  -676.9558  -592.7529 C0            1 RES     
   26132 C0         877.4844  -678.1223  -592.1912 C0            1 RES     
   26133 C0         878.9381  -678.1325  -592.6934 C0            1 RES     
   26134 C0         879.7850  -679.2346  -592.0372 C0            1 RES     
   26135 C0         879.3284  -680.6461  -592.4076 C0            1 RES     
   26136 C0         870.7069  -678.6486  -594.9108 C0            1 RES     
   26137 C0         869.7436  -677.4517  -595.1794 C0            1 RES     
   26138 C0         868.3684  -678.0003  -595.5719 C0            1 RES     
   26139 C0         867.3625  -677.0354  -596.1931 C0            1 RES     
   26140 C0         866.6089  -676.1301  -595.2297 C0            1 RES     
   26141 C0         865.6212  -675.2815  -596.0577 C0            1 RES     
   26142 C0         864.6476  -674.4509  -595.2184 C0            1 RES     
   26143 C0         863.6419  -675.3228  -594.4637 C0            1 RES     
   26144 H6         871.6783  -678.0942  -597.7145 H6            1 RES     
   26145 H6         872.9643  -679.2775  -597.5938 H6            1 RES     
   26146 H6         872.5419  -679.6600  -595.3218 H6            1 RES     
   26147 H6         872.4647  -676.6593  -596.1280 H6            1 RES     
   26148 H6         873.8932  -677.7436  -596.1432 H6            1 RES     
   26149 H6         873.7784  -677.8962  -593.6382 H6            1 RES     
   26150 H6         872.3445  -676.8120  -593.6564 H6            1 RES     
   26151 H6         874.2828  -675.4818  -593.1152 H6            1 RES     
   26152 H6         873.6101  -674.9716  -594.6819 H6            1 RES     
   26153 H6         876.0830  -674.9595  -594.6908 H6            1 RES     
   26154 H6         875.4346  -676.0797  -595.9203 H6            1 RES     
   26155 H6         875.9435  -678.0389  -594.5000 H6            1 RES     
   26156 H6         877.3920  -677.0272  -594.8077 H6            1 RES     
   26157 H6         875.6795  -676.9924  -592.2339 H6            1 RES     
   26158 H6         877.1491  -675.9884  -592.5067 H6            1 RES     
   26159 H6         877.5016  -678.0183  -591.0844 H6            1 RES     
   26160 H6         876.9698  -679.0731  -592.4435 H6            1 RES     
   26161 H6         878.9774  -678.2598  -593.7951 H6            1 RES     
   26162 H6         879.3990  -677.1538  -592.4366 H6            1 RES     
   26163 H6         879.7685  -679.1150  -590.9319 H6            1 RES     
   26164 H6         880.8348  -679.1145  -592.3817 H6            1 RES     
   26165 H6         878.3012  -680.8479  -592.0425 H6            1 RES     
   26166 H6         879.3614  -680.7825  -593.5095 H6            1 RES     
   26167 H6         880.0081  -681.3873  -591.9375 H6            1 RES     
   26168 H6         871.0046  -678.5854  -593.8423 H6            1 RES     
   26169 H6         870.1657  -679.6182  -594.9515 H6            1 RES     
   26170 H6         869.6213  -676.8300  -594.2642 H6            1 RES     
   26171 H6         870.1524  -676.8064  -595.9833 H6            1 RES     
   26172 H6         867.9077  -678.6027  -594.7608 H6            1 RES     
   26173 H6         868.5915  -678.6662  -596.3782 H6            1 RES     
   26174 H6         867.8604  -676.4527  -596.9720 H6            1 RES     
   26175 H6         866.5939  -677.6654  -596.6961 H6            1 RES     
   26176 H6         866.0659  -676.7877  -594.5183 H6            1 RES     
   26177 H6         867.3020  -675.4722  -594.6641 H6            1 RES     
   26178 H6         866.2152  -674.5951  -596.7029 H6            1 RES     
   26179 H6         865.0160  -675.9326  -596.7288 H6            1 RES     
   26180 H6         864.0688  -673.8042  -595.9141 H6            1 RES     
   26181 H6         865.2056  -673.7985  -594.5142 H6            1 RES     
   26182 H6         864.1442  -675.9708  -593.7187 H6            1 RES     
   26183 H6         862.9186  -674.6750  -593.9283 H6            1 RES     
   26184 H6         863.0774  -675.9620  -595.1790 H6            1 RES     
   26185 C0         871.5533  -680.2492  -599.5998 C0            1 RES     
   26186 C0         872.4595  -679.2047  -600.3960 C0            1 RES     
   26187 C0         872.2314  -679.4915  -601.9185 C0            1 RES     
   26188 C0         873.2042  -678.7836  -602.8831 C0            1 RES     
   26189 C0         872.9286  -679.0749  -604.3688 C0            1 RES     
   26190 C0         873.0165  -680.5533  -604.7877 C0            1 RES     
   26191 C0         874.3323  -681.2595  -604.4206 C0            1 RES     
   26192 C0         875.5792  -680.5741  -605.0067 C0            1 RES     
   26193 C0         876.8860  -681.2890  -604.6265 C0            1 RES     
   26194 C0         877.0074  -682.6889  -605.2548 C0            1 RES     
   26195 C0         878.3646  -683.3547  -604.9795 C0            1 RES     
   26196 C0         878.5934  -683.6698  -603.5012 C0            1 RES     
   26197 C0         872.5271  -677.6455  -600.1106 C0            1 RES     
   26198 C0         871.3218  -676.7041  -600.3919 C0            1 RES     
   26199 C0         870.6247  -676.2425  -599.0995 C0            1 RES     
   26200 C0         869.3926  -675.3682  -599.2652 C0            1 RES     
   26201 C0         869.6207  -673.9311  -599.7124 C0            1 RES     
   26202 C0         868.2580  -673.2127  -599.6361 C0            1 RES     
   26203 C0         868.3181  -671.7078  -599.9043 C0            1 RES     
   26204 C0         869.0628  -670.9509  -598.8036 C0            1 RES     
   26205 H6         870.6692  -680.5054  -600.2289 H6            1 RES     
   26206 H6         872.1244  -681.2035  -599.6566 H6            1 RES     
   26207 H6         873.5001  -679.5210  -600.1525 H6            1 RES     
   26208 H6         871.1927  -679.2043  -602.1902 H6            1 RES     
   26209 H6         872.3355  -680.5865  -602.0765 H6            1 RES     
   26210 H6         874.2469  -679.0634  -602.6238 H6            1 RES     
   26211 H6         873.1030  -677.6846  -602.7938 H6            1 RES     
   26212 H6         873.6555  -678.4869  -604.9688 H6            1 RES     
   26213 H6         871.9157  -678.6991  -604.6333 H6            1 RES     
   26214 H6         872.8697  -680.6042  -605.8888 H6            1 RES     
   26215 H6         872.1809  -681.1169  -604.3204 H6            1 RES     
   26216 H6         874.4297  -681.3126  -603.3152 H6            1 RES     
   26217 H6         874.2539  -682.2973  -604.8039 H6            1 RES     
   26218 H6         875.6479  -679.5441  -604.5985 H6            1 RES     
   26219 H6         875.4969  -680.5050  -606.1130 H6            1 RES     
   26220 H6         877.7296  -680.6680  -604.9987 H6            1 RES     
   26221 H6         876.9559  -681.3431  -603.5193 H6            1 RES     
   26222 H6         876.2031  -683.3604  -604.8897 H6            1 RES     
   26223 H6         876.9017  -682.5830  -606.3566 H6            1 RES     
   26224 H6         879.1856  -682.7058  -605.3547 H6            1 RES     
   26225 H6         878.3972  -684.3130  -605.5414 H6            1 RES     
   26226 H6         878.6250  -682.7443  -602.8916 H6            1 RES     
   26227 H6         877.7889  -684.3349  -603.1214 H6            1 RES     
   26228 H6         879.5676  -684.1895  -603.3840 H6            1 RES     
   26229 H6         873.3416  -677.2782  -600.7615 H6            1 RES     
   26230 H6         873.0073  -677.3990  -599.1451 H6            1 RES     
   26231 H6         871.7217  -675.7669  -600.8380 H6            1 RES     
   26232 H6         870.6300  -677.1554  -601.1317 H6            1 RES     
   26233 H6         871.3562  -675.7417  -598.4254 H6            1 RES     
   26234 H6         870.2216  -677.1013  -598.5745 H6            1 RES     
   26235 H6         868.6504  -675.8800  -599.9157 H6            1 RES     
   26236 H6         868.9772  -675.2725  -598.2485 H6            1 RES     
   26237 H6         870.3457  -673.4687  -599.0097 H6            1 RES     
   26238 H6         870.0327  -673.8915  -600.7422 H6            1 RES     
   26239 H6         867.5787  -673.6829  -600.3808 H6            1 RES     
   26240 H6         867.8023  -673.3545  -598.6290 H6            1 RES     
   26241 H6         867.2713  -671.3323  -599.9171 H6            1 RES     
   26242 H6         868.7767  -671.5144  -600.8943 H6            1 RES     
   26243 H6         870.1298  -671.2464  -598.7591 H6            1 RES     
   26244 H6         869.0124  -669.8621  -599.0094 H6            1 RES     
   26245 H6         868.5897  -671.1440  -597.8157 H6            1 RES     
   26246 C0         876.8679  -690.4714  -592.7890 C0            1 RES     
   26247 C1         875.5833  -689.7151  -593.1932 C1            1 RES     
   26248 C1         874.4911  -690.5225  -593.2093 C1            1 RES     
   26249 S2         873.0984  -689.7550  -593.7326 S2            1 RES     
   26250 C1         873.9258  -688.2947  -594.0045 C1            1 RES     
   26251 C1         875.2806  -688.4339  -593.6838 C1            1 RES     
   26252 C1         874.8903  -691.8347  -592.8752 C1            1 RES     
   26253 C1         876.2409  -691.8644  -592.7146 C1            1 RES     
   26254 C1         876.7221  -693.1543  -592.5246 C1            1 RES     
   26255 C1         875.6651  -694.0800  -592.5144 C1            1 RES     
   26256 S2         874.1627  -693.3255  -592.7532 S2            1 RES     
   26257 H3         875.9841  -687.6425  -593.8599 H3            1 RES     
   26258 H3         877.7686  -693.4083  -592.4065 H3            1 RES     
   26259 N4         875.4017  -697.6180  -591.3047 N4            1 RES     
   26260 C1         875.3131  -696.2559  -591.3359 C1            1 RES     
   26261 C1         875.7917  -695.5313  -592.4412 C1            1 RES     
   26262 C1         876.3365  -696.2448  -593.5103 C1            1 RES     
   26263 N4         876.7809  -695.6729  -594.6588 N4            1 RES     
   26264 S2         877.2374  -696.9871  -595.5511 S2            1 RES     
   26265 N4         876.9076  -698.2710  -594.5605 N4            1 RES     
   26266 C1         876.3991  -697.6600  -593.4620 C1            1 RES     
   26267 C1         875.9360  -698.3328  -592.3343 C1            1 RES     
   26268 H5         874.8754  -695.7312  -590.4910 H5            1 RES     
   26269 C0         877.5494  -690.1594  -591.4102 C0            1 RES     
   26270 C0         877.0890  -690.5060  -589.9440 C0            1 RES     
   26271 C0         878.1387  -689.8073  -589.0100 C0            1 RES     
   26272 C0         877.9832  -690.0352  -587.5013 C0            1 RES     
   26273 C0         879.0388  -689.2593  -586.6789 C0            1 RES     
   26274 C0         880.5107  -689.6550  -586.9296 C0            1 RES     
   26275 C0         880.8208  -691.1505  -586.7410 C0            1 RES     
   26276 C0         880.4611  -691.6685  -585.3372 C0            1 RES     
   26277 C0         880.7191  -693.1728  -585.1696 C0            1 RES     
   26278 C0         882.2117  -693.5406  -585.2209 C0            1 RES     
   26279 C0         882.4661  -695.0298  -584.9380 C0            1 RES     
   26280 C0         881.8910  -695.9538  -586.0122 C0            1 RES     
   26281 C0         875.6192  -690.2042  -589.5039 C0            1 RES     
   26282 C0         875.1298  -688.7245  -589.4440 C0            1 RES     
   26283 C0         873.9346  -688.5589  -590.3875 C0            1 RES     
   26284 C0         873.4942  -687.1420  -590.7444 C0            1 RES     
   26285 C0         872.6440  -686.4170  -589.7114 C0            1 RES     
   26286 C0         872.2751  -685.0358  -590.2923 C0            1 RES     
   26287 C0         871.2607  -684.2518  -589.4566 C0            1 RES     
   26288 C0         869.8736  -684.8975  -589.4716 C0            1 RES     
   26289 H6         877.7094  -689.1118  -591.3879 H6            1 RES     
   26290 H6         878.5478  -690.6469  -591.4830 H6            1 RES     
   26291 H6         877.1945  -691.6081  -589.8303 H6            1 RES     
   26292 H6         878.1068  -688.7089  -589.1801 H6            1 RES     
   26293 H6         879.1477  -690.1637  -589.3089 H6            1 RES     
   26294 H6         878.0286  -691.1195  -587.2729 H6            1 RES     
   26295 H6         876.9958  -689.6513  -587.1741 H6            1 RES     
   26296 H6         878.8086  -689.3994  -585.6025 H6            1 RES     
   26297 H6         878.9357  -688.1706  -586.8836 H6            1 RES     
   26298 H6         881.1496  -689.0630  -586.2369 H6            1 RES     
   26299 H6         880.8050  -689.3680  -587.9618 H6            1 RES     
   26300 H6         880.2679  -691.7380  -587.5041 H6            1 RES     
   26301 H6         881.9059  -691.2883  -586.9286 H6            1 RES     
   26302 H6         879.3750  -691.5208  -585.1684 H6            1 RES     
   26303 H6         881.0163  -691.0975  -584.5611 H6            1 RES     
   26304 H6         880.3232  -693.4721  -584.1747 H6            1 RES     
   26305 H6         880.1480  -693.7185  -585.9499 H6            1 RES     
   26306 H6         882.6508  -693.2840  -586.2072 H6            1 RES     
   26307 H6         882.7392  -692.9529  -584.4383 H6            1 RES     
   26308 H6         882.0441  -695.3026  -583.9461 H6            1 RES     
   26309 H6         883.5650  -695.1916  -584.9019 H6            1 RES     
   26310 H6         880.7861  -695.8780  -586.0617 H6            1 RES     
   26311 H6         882.3226  -695.7027  -587.0043 H6            1 RES     
   26312 H6         882.1492  -697.0056  -585.7684 H6            1 RES     
   26313 H6         875.4798  -690.6281  -588.4864 H6            1 RES     
   26314 H6         874.9373  -690.8294  -590.1192 H6            1 RES     
   26315 H6         874.7992  -688.4591  -588.4148 H6            1 RES     
   26316 H6         875.9532  -688.0389  -589.7300 H6            1 RES     
   26317 H6         873.0716  -689.1909  -590.0896 H6            1 RES     
   26318 H6         874.3026  -688.9371  -591.3175 H6            1 RES     
   26319 H6         874.3734  -686.5518  -591.0140 H6            1 RES     
   26320 H6         872.8658  -687.2307  -591.6597 H6            1 RES     
   26321 H6         871.7343  -687.0321  -589.5450 H6            1 RES     
   26322 H6         873.1865  -686.2981  -588.7498 H6            1 RES     
   26323 H6         873.2106  -684.4374  -590.3759 H6            1 RES     
   26324 H6         871.8539  -685.1444  -591.3177 H6            1 RES     
   26325 H6         871.1602  -683.2406  -589.9088 H6            1 RES     
   26326 H6         871.6270  -684.1362  -588.4148 H6            1 RES     
   26327 H6         869.8861  -685.8989  -588.9980 H6            1 RES     
   26328 H6         869.1612  -684.2580  -588.9119 H6            1 RES     
   26329 H6         869.5087  -684.9955  -590.5185 H6            1 RES     
   26330 C0         877.8601  -690.2757  -594.0026 C0            1 RES     
   26331 C0         879.2129  -689.4301  -593.9709 C0            1 RES     
   26332 C0         879.5430  -689.0679  -595.4582 C0            1 RES     
   26333 C0         880.9469  -688.4793  -595.7048 C0            1 RES     
   26334 C0         881.2192  -688.1162  -597.1753 C0            1 RES     
   26335 C0         881.1345  -689.2808  -598.1782 C0            1 RES     
   26336 C0         882.0086  -690.4997  -597.8396 C0            1 RES     
   26337 C0         883.5036  -690.1618  -597.7019 C0            1 RES     
   26338 C0         884.3626  -691.3896  -597.3585 C0            1 RES     
   26339 C0         884.4074  -692.4261  -598.4954 C0            1 RES     
   26340 C0         885.3635  -693.5937  -598.2060 C0            1 RES     
   26341 C0         884.9179  -694.4608  -597.0284 C0            1 RES     
   26342 C0         879.5067  -688.2066  -593.0046 C0            1 RES     
   26343 C0         878.7496  -686.8546  -593.1346 C0            1 RES     
   26344 C0         877.7224  -686.6473  -592.0071 C0            1 RES     
   26345 C0         876.8813  -685.3834  -592.0760 C0            1 RES     
   26346 C0         877.5787  -684.0709  -591.7471 C0            1 RES     
   26347 C0         876.4915  -682.9774  -591.7146 C0            1 RES     
   26348 C0         876.9838  -681.6067  -591.2466 C0            1 RES     
   26349 C0         877.3843  -681.6063  -589.7706 C0            1 RES     
   26350 H6         877.2608  -689.9556  -594.8866 H6            1 RES     
   26351 H6         878.1807  -691.2897  -594.3329 H6            1 RES     
   26352 H6         879.9761  -690.1688  -593.6335 H6            1 RES     
   26353 H6         878.7860  -688.3453  -595.8324 H6            1 RES     
   26354 H6         879.4554  -689.9973  -596.0610 H6            1 RES     
   26355 H6         881.7139  -689.1926  -595.3370 H6            1 RES     
   26356 H6         881.0650  -687.5237  -595.1582 H6            1 RES     
   26357 H6         882.2338  -687.6671  -597.2301 H6            1 RES     
   26358 H6         880.5021  -687.3290  -597.4965 H6            1 RES     
   26359 H6         881.4243  -688.8902  -599.1782 H6            1 RES     
   26360 H6         880.0804  -689.6231  -598.2541 H6            1 RES     
   26361 H6         881.6501  -690.9635  -596.8958 H6            1 RES     
   26362 H6         881.8591  -691.2350  -598.6563 H6            1 RES     
   26363 H6         883.6330  -689.4384  -596.8700 H6            1 RES     
   26364 H6         883.8795  -689.6895  -598.6352 H6            1 RES     
   26365 H6         885.3994  -691.0335  -597.1734 H6            1 RES     
   26366 H6         883.9786  -691.8447  -596.4208 H6            1 RES     
   26367 H6         883.3974  -692.8378  -598.6990 H6            1 RES     
   26368 H6         884.7688  -691.9150  -599.4144 H6            1 RES     
   26369 H6         886.3874  -693.2042  -598.0168 H6            1 RES     
   26370 H6         885.4007  -694.2392  -599.1099 H6            1 RES     
   26371 H6         884.9120  -693.8838  -596.0818 H6            1 RES     
   26372 H6         883.9033  -694.8720  -597.2168 H6            1 RES     
   26373 H6         885.6264  -695.3072  -596.9081 H6            1 RES     
   26374 H6         880.5706  -687.9627  -593.1795 H6            1 RES     
   26375 H6         879.6111  -688.5035  -591.9441 H6            1 RES     
   26376 H6         879.4893  -686.0373  -592.9859 H6            1 RES     
   26377 H6         878.3223  -686.7352  -594.1508 H6            1 RES     
   26378 H6         878.2219  -686.7157  -591.0140 H6            1 RES     
   26379 H6         876.9663  -687.4230  -592.0538 H6            1 RES     
   26380 H6         876.3606  -685.3286  -593.0567 H6            1 RES     
   26381 H6         876.1327  -685.5000  -591.2751 H6            1 RES     
   26382 H6         878.0527  -684.1800  -590.7488 H6            1 RES     
   26383 H6         878.3594  -683.8315  -592.4989 H6            1 RES     
   26384 H6         876.0730  -682.8772  -592.7403 H6            1 RES     
   26385 H6         875.6581  -683.2812  -591.0400 H6            1 RES     
   26386 H6         876.1375  -680.8944  -591.3623 H6            1 RES     
   26387 H6         877.8245  -681.2654  -591.8826 H6            1 RES     
   26388 H6         878.2540  -682.2678  -589.5864 H6            1 RES     
   26389 H6         877.6614  -680.5760  -589.4667 H6            1 RES     
   26390 H6         876.5316  -681.9413  -589.1401 H6            1 RES     
   26391 C0         877.6673  -703.4081  -591.4278 C0            1 RES     
   26392 C1         876.8467  -702.1443  -591.7672 C1            1 RES     
   26393 C1         875.6991  -702.4361  -592.4328 C1            1 RES     
   26394 S2         874.8312  -701.0819  -592.8969 S2            1 RES     
   26395 C1         876.0001  -700.0296  -592.2510 C1            1 RES     
   26396 C1         877.0528  -700.7571  -591.6852 C1            1 RES     
   26397 C1         875.6337  -703.8314  -592.6369 C1            1 RES     
   26398 C1         876.7698  -704.4075  -592.1591 C1            1 RES     
   26399 C1         876.8390  -705.7636  -592.4545 C1            1 RES     
   26400 C1         875.6863  -706.1796  -593.1419 C1            1 RES     
   26401 S2         874.6060  -704.8949  -593.3982 S2            1 RES     
   26402 H3         877.9253  -700.2703  -591.2927 H3            1 RES     
   26403 H3         877.6706  -706.4074  -592.1942 H3            1 RES     
   26404 N4         874.1926  -709.5577  -593.7805 N4            1 RES     
   26405 C1         874.4276  -708.3378  -593.2142 C1            1 RES     
   26406 C1         875.4491  -707.5050  -593.7029 C1            1 RES     
   26407 C1         876.1969  -707.9513  -594.7940 C1            1 RES     
   26408 N4         877.1709  -707.2230  -595.3976 N4            1 RES     
   26409 S2         877.6373  -708.2170  -596.6329 S2            1 RES     
   26410 N4         876.6698  -709.5478  -596.4561 N4            1 RES     
   26411 C1         875.9202  -709.2135  -595.3767 C1            1 RES     
   26412 C1         874.9152  -710.0149  -594.8414 C1            1 RES     
   26413 H5         873.8216  -708.0163  -592.3715 H5            1 RES     
   26414 C0         877.8038  -703.8650  -589.9327 C0            1 RES     
   26415 C0         876.7407  -704.5027  -588.9605 C0            1 RES     
   26416 C0         877.4662  -704.6066  -587.5730 C0            1 RES     
   26417 C0         876.6848  -705.2681  -586.4310 C0            1 RES     
   26418 C0         877.4765  -705.2690  -585.1020 C0            1 RES     
   26419 C0         878.8012  -706.0633  -585.1086 C0            1 RES     
   26420 C0         878.6726  -707.5340  -585.5430 C0            1 RES     
   26421 C0         877.6859  -708.3351  -584.6752 C0            1 RES     
   26422 C0         877.5172  -709.7871  -585.1453 C0            1 RES     
   26423 C0         878.7883  -710.6339  -584.9638 C0            1 RES     
   26424 C0         878.5745  -712.1113  -585.3297 C0            1 RES     
   26425 C0         878.2779  -712.3274  -586.8141 C0            1 RES     
   26426 C0         875.3228  -703.8556  -588.8345 C0            1 RES     
   26427 C0         875.1902  -702.4188  -588.2424 C0            1 RES     
   26428 C0         874.5301  -701.5116  -589.2852 C0            1 RES     
   26429 C0         874.5909  -700.0030  -589.0639 C0            1 RES     
   26430 C0         873.5872  -699.4223  -588.0785 C0            1 RES     
   26431 C0         873.7919  -697.8932  -588.0455 C0            1 RES     
   26432 C0         872.7320  -697.1332  -587.2446 C0            1 RES     
   26433 C0         871.3566  -697.1776  -587.9135 C0            1 RES     
   26434 H6         878.1700  -703.0263  -589.3977 H6            1 RES     
   26435 H6         878.6157  -704.6267  -589.9533 H6            1 RES     
   26436 H6         876.5461  -705.5326  -589.3345 H6            1 RES     
   26437 H6         877.7478  -703.5872  -587.2294 H6            1 RES     
   26438 H6         878.4053  -705.1807  -587.7243 H6            1 RES     
   26439 H6         876.3956  -706.3004  -586.7149 H6            1 RES     
   26440 H6         875.7601  -704.6879  -586.2374 H6            1 RES     
   26441 H6         876.8175  -705.6778  -584.3084 H6            1 RES     
   26442 H6         877.7059  -704.2199  -584.8109 H6            1 RES     
   26443 H6         879.2308  -706.0255  -584.0827 H6            1 RES     
   26444 H6         879.5324  -705.5663  -585.7813 H6            1 RES     
   26445 H6         878.3483  -707.5752  -586.6043 H6            1 RES     
   26446 H6         879.6844  -707.9858  -585.4806 H6            1 RES     
   26447 H6         876.6828  -707.8679  -584.7494 H6            1 RES     
   26448 H6         878.0036  -708.3136  -583.6097 H6            1 RES     
   26449 H6         876.7071  -710.2445  -584.5365 H6            1 RES     
   26450 H6         877.1926  -709.7794  -586.2070 H6            1 RES     
   26451 H6         879.6242  -710.2321  -585.5732 H6            1 RES     
   26452 H6         879.0824  -710.5900  -583.8925 H6            1 RES     
   26453 H6         877.7481  -712.5354  -584.7184 H6            1 RES     
   26454 H6         879.5055  -712.6662  -585.0838 H6            1 RES     
   26455 H6         877.3277  -711.8401  -587.1119 H6            1 RES     
   26456 H6         879.1081  -711.9256  -587.4330 H6            1 RES     
   26457 H6         878.1797  -713.4149  -587.0145 H6            1 RES     
   26458 H6         874.7051  -704.5225  -588.1956 H6            1 RES     
   26459 H6         874.8169  -703.9332  -589.8207 H6            1 RES     
   26460 H6         874.5501  -702.4243  -587.3318 H6            1 RES     
   26461 H6         876.1894  -702.0293  -587.9600 H6            1 RES     
   26462 H6         873.5028  -701.8445  -589.5436 H6            1 RES     
   26463 H6         875.1398  -701.6516  -590.1524 H6            1 RES     
   26464 H6         875.6123  -699.7219  -588.7961 H6            1 RES     
   26465 H6         874.3694  -699.5329  -590.0491 H6            1 RES     
   26466 H6         872.5736  -699.6780  -588.4536 H6            1 RES     
   26467 H6         873.7206  -699.8509  -587.0628 H6            1 RES     
   26468 H6         874.7924  -697.6901  -587.6006 H6            1 RES     
   26469 H6         873.7941  -697.4782  -589.0792 H6            1 RES     
   26470 H6         873.0438  -696.0665  -587.1989 H6            1 RES     
   26471 H6         872.6760  -697.5278  -586.2083 H6            1 RES     
   26472 H6         870.9600  -698.2110  -587.9595 H6            1 RES     
   26473 H6         870.6427  -696.5577  -587.3340 H6            1 RES     
   26474 H6         871.4199  -696.7666  -588.9459 H6            1 RES     
   26475 C0         879.0726  -703.1829  -592.1134 C0            1 RES     
   26476 C0         880.4552  -702.9590  -591.3489 C0            1 RES     
   26477 C0         881.4138  -702.2528  -592.3661 C0            1 RES     
   26478 C0         882.8942  -702.1734  -591.9417 C0            1 RES     
   26479 C0         883.7947  -701.4511  -592.9594 C0            1 RES     
   26480 C0         883.8546  -702.0793  -594.3632 C0            1 RES     
   26481 C0         884.2321  -703.5696  -594.3968 C0            1 RES     
   26482 C0         885.5875  -703.8730  -593.7344 C0            1 RES     
   26483 C0         885.9475  -705.3671  -593.7718 C0            1 RES     
   26484 C0         886.2040  -705.8858  -595.1981 C0            1 RES     
   26485 C0         886.6853  -707.3447  -595.2287 C0            1 RES     
   26486 C0         885.6333  -708.3377  -594.7342 C0            1 RES     
   26487 C0         880.6094  -702.3438  -589.8946 C0            1 RES     
   26488 C0         880.2841  -700.8536  -589.5924 C0            1 RES     
   26489 C0         878.9706  -700.6880  -588.8071 C0            1 RES     
   26490 C0         878.5268  -699.2642  -588.5147 C0            1 RES     
   26491 C0         879.3112  -698.4997  -587.4576 C0            1 RES     
   26492 C0         878.5700  -697.1680  -587.2204 C0            1 RES     
   26493 C0         879.1296  -696.3260  -586.0723 C0            1 RES     
   26494 C0         878.9081  -696.9828  -584.7089 C0            1 RES     
   26495 H6         878.9554  -702.3812  -592.8793 H6            1 RES     
   26496 H6         879.2638  -704.0621  -592.7695 H6            1 RES     
   26497 H6         880.8405  -703.9934  -591.1953 H6            1 RES     
   26498 H6         881.0449  -701.2219  -592.5567 H6            1 RES     
   26499 H6         881.3661  -702.8152  -593.3234 H6            1 RES     
   26500 H6         883.2766  -703.1978  -591.7497 H6            1 RES     
   26501 H6         882.9968  -701.5802  -591.0125 H6            1 RES     
   26502 H6         884.8215  -701.4160  -592.5367 H6            1 RES     
   26503 H6         883.4550  -700.3973  -593.0651 H6            1 RES     
   26504 H6         884.5922  -701.5023  -594.9629 H6            1 RES     
   26505 H6         882.8675  -701.9626  -594.8594 H6            1 RES     
   26506 H6         883.4389  -704.1652  -593.8963 H6            1 RES     
   26507 H6         884.2561  -703.8676  -595.4648 H6            1 RES     
   26508 H6         885.5368  -703.5831  -592.6641 H6            1 RES     
   26509 H6         886.3939  -703.2800  -594.2175 H6            1 RES     
   26510 H6         886.8794  -705.5033  -593.1809 H6            1 RES     
   26511 H6         885.1360  -705.9437  -593.2792 H6            1 RES     
   26512 H6         885.2910  -705.8010  -595.8228 H6            1 RES     
   26513 H6         887.0005  -705.2589  -595.6552 H6            1 RES     
   26514 H6         887.6114  -707.4488  -594.6226 H6            1 RES     
   26515 H6         886.9301  -707.6034  -596.2814 H6            1 RES     
   26516 H6         885.3845  -708.1643  -593.6679 H6            1 RES     
   26517 H6         884.7104  -708.2560  -595.3470 H6            1 RES     
   26518 H6         886.0311  -709.3700  -594.8287 H6            1 RES     
   26519 H6         881.6819  -702.4625  -589.6543 H6            1 RES     
   26520 H6         880.2207  -703.0053  -589.0977 H6            1 RES     
   26521 H6         881.0672  -700.4700  -588.9019 H6            1 RES     
   26522 H6         880.3278  -700.2426  -590.5167 H6            1 RES     
   26523 H6         879.0117  -701.2735  -587.8606 H6            1 RES     
   26524 H6         878.1421  -701.0650  -589.3962 H6            1 RES     
   26525 H6         878.4589  -698.6871  -589.4624 H6            1 RES     
   26526 H6         877.5184  -699.3676  -588.0812 H6            1 RES     
   26527 H6         879.3184  -699.1128  -586.5317 H6            1 RES     
   26528 H6         880.3561  -698.3189  -587.7853 H6            1 RES     
   26529 H6         878.6211  -696.5735  -588.1591 H6            1 RES     
   26530 H6         877.4940  -697.3583  -587.0015 H6            1 RES     
   26531 H6         878.5773  -695.3607  -586.0706 H6            1 RES     
   26532 H6         880.2053  -696.1193  -586.2394 H6            1 RES     
   26533 H6         879.4656  -697.9365  -584.6230 H6            1 RES     
   26534 H6         879.2644  -696.2994  -583.9111 H6            1 RES     
   26535 H6         877.8253  -697.1778  -584.5467 H6            1 RES     
   26536 C0         874.9807  -715.3470  -595.9107 C0            1 RES     
   26537 C1         874.6613  -713.8373  -595.8435 C1            1 RES     
   26538 C1         873.8333  -713.4387  -596.8439 C1            1 RES     
   26539 S2         873.5407  -711.7905  -596.8545 S2            1 RES     
   26540 C1         874.5638  -711.5330  -595.5212 C1            1 RES     
   26541 C1         875.1204  -712.7427  -595.0919 C1            1 RES     
   26542 C1         873.5459  -714.5495  -597.6663 C1            1 RES     
   26543 C1         874.2450  -715.6285  -597.2216 C1            1 RES     
   26544 C1         874.1222  -716.7233  -598.0688 C1            1 RES     
   26545 C1         873.2708  -716.4227  -599.1453 C1            1 RES     
   26546 S2         872.6915  -714.8284  -599.0659 S2            1 RES     
   26547 H3         875.8532  -712.7776  -594.3082 H3            1 RES     
   26548 H3         874.6199  -717.6741  -597.9199 H3            1 RES     
   26549 N4         871.4394  -718.5728  -601.6098 N4            1 RES     
   26550 C1         871.6973  -717.8009  -600.5135 C1            1 RES     
   26551 C1         872.9854  -717.2867  -600.2853 C1            1 RES     
   26552 C1         873.9823  -717.5689  -601.2210 C1            1 RES     
   26553 N4         875.2500  -717.0880  -601.1504 N4            1 RES     
   26554 S2         875.9309  -717.6904  -602.5307 S2            1 RES     
   26555 N4         874.7029  -718.5467  -603.2359 N4            1 RES     
   26556 C1         873.6843  -718.3565  -602.3613 C1            1 RES     
   26557 C1         872.3995  -718.8657  -602.5313 C1            1 RES     
   26558 H5         870.8969  -717.5925  -599.8088 H5            1 RES     
   26559 C0         874.4147  -716.3086  -594.8072 C0            1 RES     
   26560 C0         872.9429  -716.8061  -594.5460 C0            1 RES     
   26561 C0         873.0231  -717.6414  -593.2200 C0            1 RES     
   26562 C0         871.7309  -718.3214  -592.7509 C0            1 RES     
   26563 C0         871.9159  -719.0717  -591.4109 C0            1 RES     
   26564 C0         872.9251  -720.2409  -591.4283 C0            1 RES     
   26565 C0         872.6550  -721.3140  -592.4977 C0            1 RES     
   26566 C0         871.2561  -721.9447  -592.3793 C0            1 RES     
   26567 C0         870.9683  -722.9746  -593.4811 C0            1 RES     
   26568 C0         871.8442  -724.2345  -593.3761 C0            1 RES     
   26569 C0         871.4695  -725.3060  -594.4124 C0            1 RES     
   26570 C0         871.7393  -724.8708  -595.8533 C0            1 RES     
   26571 C0         871.7710  -715.7713  -594.5178 C0            1 RES     
   26572 C0         871.7387  -714.6862  -593.3979 C0            1 RES     
   26573 C0         871.7595  -713.3002  -594.0495 C0            1 RES     
   26574 C0         872.0612  -712.0957  -593.1624 C0            1 RES     
   26575 C0         870.9072  -711.5671  -592.3231 C0            1 RES     
   26576 C0         871.4157  -710.3325  -591.5495 C0            1 RES     
   26577 C0         870.3237  -709.5647  -590.8011 C0            1 RES     
   26578 C0         869.3484  -708.8679  -591.7521 C0            1 RES     
   26579 H6         874.7175  -715.9032  -593.8757 H6            1 RES     
   26580 H6         874.9788  -717.2569  -594.9564 H6            1 RES     
   26581 H6         872.6878  -717.4952  -595.3818 H6            1 RES     
   26582 H6         873.3655  -716.9827  -592.3921 H6            1 RES     
   26583 H6         873.7936  -718.4291  -593.3623 H6            1 RES     
   26584 H6         871.3553  -719.0090  -593.5358 H6            1 RES     
   26585 H6         870.9579  -717.5484  -592.5660 H6            1 RES     
   26586 H6         870.9257  -719.4579  -591.0922 H6            1 RES     
   26587 H6         872.2390  -718.3502  -590.6280 H6            1 RES     
   26588 H6         872.9145  -720.7204  -590.4241 H6            1 RES     
   26589 H6         873.9520  -719.8469  -591.5850 H6            1 RES     
   26590 H6         872.7728  -720.8639  -593.5059 H6            1 RES     
   26591 H6         873.4336  -722.0966  -592.3834 H6            1 RES     
   26592 H6         870.4933  -721.1479  -592.4944 H6            1 RES     
   26593 H6         871.1264  -722.4109  -591.3781 H6            1 RES     
   26594 H6         869.9048  -723.2835  -593.3817 H6            1 RES     
   26595 H6         871.0968  -722.4820  -594.4678 H6            1 RES     
   26596 H6         872.9185  -723.9830  -593.4944 H6            1 RES     
   26597 H6         871.6961  -724.6748  -592.3659 H6            1 RES     
   26598 H6         870.3980  -725.5809  -594.3000 H6            1 RES     
   26599 H6         872.0813  -726.2114  -594.2096 H6            1 RES     
   26600 H6         871.1159  -723.9987  -596.1359 H6            1 RES     
   26601 H6         872.8124  -724.6138  -595.9811 H6            1 RES     
   26602 H6         871.4894  -725.7049  -596.5418 H6            1 RES     
   26603 H6         870.8212  -716.3420  -594.4370 H6            1 RES     
   26604 H6         871.6891  -715.3119  -595.5262 H6            1 RES     
   26605 H6         870.8087  -714.7713  -592.7921 H6            1 RES     
   26606 H6         872.6061  -714.8134  -592.7188 H6            1 RES     
   26607 H6         870.8701  -713.1220  -594.6898 H6            1 RES     
   26608 H6         872.6131  -713.3446  -594.6920 H6            1 RES     
   26609 H6         872.9302  -712.3197  -592.5389 H6            1 RES     
   26610 H6         872.3542  -711.2678  -593.8475 H6            1 RES     
   26611 H6         870.0928  -711.2869  -593.0244 H6            1 RES     
   26612 H6         870.5327  -712.3373  -591.6162 H6            1 RES     
   26613 H6         872.1793  -710.6774  -590.8159 H6            1 RES     
   26614 H6         871.9153  -709.6174  -592.2422 H6            1 RES     
   26615 H6         870.8205  -708.7732  -590.1977 H6            1 RES     
   26616 H6         869.7796  -710.2433  -590.1109 H6            1 RES     
   26617 H6         868.7835  -709.5993  -592.3629 H6            1 RES     
   26618 H6         868.6211  -708.2712  -591.1650 H6            1 RES     
   26619 H6         869.9011  -708.1791  -592.4295 H6            1 RES     
   26620 C0         876.5542  -715.4302  -596.0245 C0            1 RES     
   26621 C0         877.5380  -716.0076  -594.9088 C0            1 RES     
   26622 C0         878.9494  -715.3971  -595.2048 C0            1 RES     
   26623 C0         880.1221  -716.0175  -594.4188 C0            1 RES     
   26624 C0         881.4853  -715.3716  -594.7232 C0            1 RES     
   26625 C0         881.9504  -715.4509  -596.1882 C0            1 RES     
   26626 C0         881.9704  -716.8649  -596.7921 C0            1 RES     
   26627 C0         882.8532  -717.8527  -596.0091 C0            1 RES     
   26628 C0         882.8583  -719.2623  -596.6225 C0            1 RES     
   26629 C0         883.5320  -719.3111  -598.0056 C0            1 RES     
   26630 C0         883.6505  -720.7372  -598.5655 C0            1 RES     
   26631 C0         882.2974  -721.3805  -598.8692 C0            1 RES     
   26632 C0         877.2414  -716.0355  -593.3505 C0            1 RES     
   26633 C0         877.1626  -714.7335  -592.5041 C0            1 RES     
   26634 C0         875.7185  -714.3808  -592.1044 C0            1 RES     
   26635 C0         875.5230  -713.0894  -591.3274 C0            1 RES     
   26636 C0         875.9779  -713.0817  -589.8748 C0            1 RES     
   26637 C0         875.5182  -711.7418  -589.2645 C0            1 RES     
   26638 C0         875.7538  -711.6165  -587.7582 C0            1 RES     
   26639 C0         874.8756  -712.5741  -586.9514 C0            1 RES     
   26640 H6         876.9277  -714.4299  -596.3453 H6            1 RES     
   26641 H6         876.7875  -716.0329  -596.9313 H6            1 RES     
   26642 H6         877.5926  -717.0955  -595.1448 H6            1 RES     
   26643 H6         878.9233  -714.3054  -594.9977 H6            1 RES     
   26644 H6         879.1578  -715.5344  -596.2877 H6            1 RES     
   26645 H6         880.1611  -717.1090  -594.6182 H6            1 RES     
   26646 H6         879.9805  -715.8640  -593.3315 H6            1 RES     
   26647 H6         882.2439  -715.8636  -594.0776 H6            1 RES     
   26648 H6         881.4570  -714.3003  -594.4257 H6            1 RES     
   26649 H6         882.9720  -715.0153  -596.2448 H6            1 RES     
   26650 H6         881.2898  -714.8168  -596.8173 H6            1 RES     
   26651 H6         880.9340  -717.2619  -596.8430 H6            1 RES     
   26652 H6         882.3449  -716.7619  -597.8309 H6            1 RES     
   26653 H6         882.4523  -717.9537  -594.9790 H6            1 RES     
   26654 H6         883.8941  -717.4688  -595.9411 H6            1 RES     
   26655 H6         883.4282  -719.9256  -595.9360 H6            1 RES     
   26656 H6         881.8128  -719.6334  -596.6765 H6            1 RES     
   26657 H6         882.9809  -718.6874  -598.7392 H6            1 RES     
   26658 H6         884.5613  -718.9034  -597.9027 H6            1 RES     
   26659 H6         884.2164  -721.3759  -597.8530 H6            1 RES     
   26660 H6         884.2248  -720.6864  -599.5156 H6            1 RES     
   26661 H6         881.6952  -721.5083  -597.9472 H6            1 RES     
   26662 H6         881.7319  -720.7600  -599.5967 H6            1 RES     
   26663 H6         882.4608  -722.3854  -599.3124 H6            1 RES     
   26664 H6         878.0782  -716.6140  -592.9180 H6            1 RES     
   26665 H6         876.4351  -716.7401  -593.0724 H6            1 RES     
   26666 H6         877.6757  -714.9278  -591.5365 H6            1 RES     
   26667 H6         877.6996  -713.9021  -593.0039 H6            1 RES     
   26668 H6         875.2541  -715.2289  -591.5517 H6            1 RES     
   26669 H6         875.1266  -714.1992  -592.9944 H6            1 RES     
   26670 H6         875.9621  -712.2382  -591.8919 H6            1 RES     
   26671 H6         874.4298  -712.9591  -591.2693 H6            1 RES     
   26672 H6         875.4852  -713.9341  -589.3611 H6            1 RES     
   26673 H6         877.0793  -713.1952  -589.7981 H6            1 RES     
   26674 H6         876.0639  -710.9225  -589.7823 H6            1 RES     
   26675 H6         874.4296  -711.5878  -589.4463 H6            1 RES     
   26676 H6         875.4740  -710.5809  -587.4650 H6            1 RES     
   26677 H6         876.8255  -711.7743  -587.5249 H6            1 RES     
   26678 H6         875.1283  -713.6320  -587.1634 H6            1 RES     
   26679 H6         875.0321  -712.3902  -585.8687 H6            1 RES     
   26680 H6         873.8021  -712.4019  -587.1855 H6            1 RES     
   26681 C0         871.6962  -723.1260  -605.8378 C0            1 RES     
   26682 C1         871.7192  -721.7281  -605.1813 C1            1 RES     
   26683 C1         871.4608  -720.7346  -606.0709 C1            1 RES     
   26684 S2         871.5689  -719.1999  -605.4110 S2            1 RES     
   26685 C1         872.0162  -719.8133  -603.8896 C1            1 RES     
   26686 C1         872.0766  -721.2107  -603.9250 C1            1 RES     
   26687 C1         871.2808  -721.3045  -607.3498 C1            1 RES     
   26688 C1         871.4914  -722.6465  -607.2755 C1            1 RES     
   26689 C1         871.4716  -723.2543  -608.5251 C1            1 RES     
   26690 C1         871.2005  -722.3105  -609.5301 C1            1 RES     
   26691 S2         871.0055  -720.7485  -608.8931 S2            1 RES     
   26692 H3         872.4155  -721.7802  -603.0806 H3            1 RES     
   26693 H3         871.6468  -724.3094  -608.6978 H3            1 RES     
   26694 N4         870.0563  -722.6448  -613.0838 N4            1 RES     
   26695 C1         870.0273  -722.4515  -611.7326 C1            1 RES     
   26696 C1         871.2017  -722.5582  -610.9675 C1            1 RES     
   26697 C1         872.3962  -722.8436  -611.6312 C1            1 RES     
   26698 N4         873.6068  -722.9170  -611.0208 N4            1 RES     
   26699 S2         874.6228  -723.2096  -612.2913 S2            1 RES     
   26700 N4         873.6135  -723.2556  -613.6018 N4            1 RES     
   26701 C1         872.4031  -723.0206  -613.0376 C1            1 RES     
   26702 C1         871.2101  -722.9309  -613.7499 C1            1 RES     
   26703 H5         869.0825  -722.2219  -611.2477 H5            1 RES     
   26704 C0         870.5448  -724.1309  -605.4808 C0            1 RES     
   26705 C0         869.0182  -724.1118  -605.8693 C0            1 RES     
   26706 C0         868.3844  -725.3212  -605.0960 C0            1 RES     
   26707 C0         866.8961  -725.5975  -605.3429 C0            1 RES     
   26708 C0         866.3693  -726.7767  -604.4915 C0            1 RES     
   26709 C0         867.0180  -728.1504  -604.7706 C0            1 RES     
   26710 C0         866.9588  -728.6087  -606.2385 C0            1 RES     
   26711 C0         865.5238  -728.6819  -606.7899 C0            1 RES     
   26712 C0         865.4710  -729.0852  -608.2705 C0            1 RES     
   26713 C0         865.9325  -730.5308  -608.5212 C0            1 RES     
   26714 C0         865.7673  -730.9608  -609.9875 C0            1 RES     
   26715 C0         866.6700  -730.1855  -610.9480 C0            1 RES     
   26716 C0         868.1902  -722.7982  -605.6846 C0            1 RES     
   26717 C0         867.9624  -722.2363  -604.2476 C0            1 RES     
   26718 C0         868.5438  -720.8213  -604.1705 C0            1 RES     
   26719 C0         868.7318  -720.1981  -602.7903 C0            1 RES     
   26720 C0         867.4894  -719.6089  -602.1385 C0            1 RES     
   26721 C0         867.9134  -718.9961  -600.7872 C0            1 RES     
   26722 C0         866.8150  -718.1916  -600.0884 C0            1 RES     
   26723 C0         866.4719  -716.9035  -600.8396 C0            1 RES     
   26724 H6         870.5395  -724.2137  -604.4239 H6            1 RES     
   26725 H6         870.8969  -725.1052  -605.8889 H6            1 RES     
   26726 H6         868.9657  -724.3246  -606.9604 H6            1 RES     
   26727 H6         868.5112  -725.1640  -604.0025 H6            1 RES     
   26728 H6         868.9536  -726.2347  -605.3716 H6            1 RES     
   26729 H6         866.7166  -725.7824  -606.4215 H6            1 RES     
   26730 H6         866.3049  -724.7104  -605.0383 H6            1 RES     
   26731 H6         865.2747  -726.8577  -604.6545 H6            1 RES     
   26732 H6         866.5104  -726.5425  -603.4131 H6            1 RES     
   26733 H6         866.5083  -728.9079  -604.1343 H6            1 RES     
   26734 H6         868.0835  -728.1321  -604.4565 H6            1 RES     
   26735 H6         867.5592  -727.9144  -606.8633 H6            1 RES     
   26736 H6         867.4356  -729.6095  -606.2909 H6            1 RES     
   26737 H6         865.0644  -727.6744  -606.7276 H6            1 RES     
   26738 H6         864.9118  -729.3833  -606.1814 H6            1 RES     
   26739 H6         864.4142  -728.9968  -608.6045 H6            1 RES     
   26740 H6         866.0820  -728.3657  -608.8549 H6            1 RES     
   26741 H6         866.9938  -730.6662  -608.2263 H6            1 RES     
   26742 H6         865.3064  -731.2061  -607.8982 H6            1 RES     
   26743 H6         864.7058  -730.8446  -610.2972 H6            1 RES     
   26744 H6         866.0333  -732.0372  -610.0638 H6            1 RES     
   26745 H6         866.4175  -729.1060  -610.9578 H6            1 RES     
   26746 H6         867.7350  -730.3125  -610.6592 H6            1 RES     
   26747 H6         866.5322  -730.5765  -611.9778 H6            1 RES     
   26748 H6         867.1842  -722.9712  -606.1231 H6            1 RES     
   26749 H6         868.6146  -722.0228  -606.3577 H6            1 RES     
   26750 H6         866.8756  -722.1785  -604.0138 H6            1 RES     
   26751 H6         868.4421  -722.8988  -603.4988 H6            1 RES     
   26752 H6         868.0404  -720.1201  -604.8690 H6            1 RES     
   26753 H6         869.5480  -720.9503  -604.5143 H6            1 RES     
   26754 H6         869.2134  -720.9255  -602.1323 H6            1 RES     
   26755 H6         869.4456  -719.3534  -602.9228 H6            1 RES     
   26756 H6         867.0996  -718.8260  -602.8231 H6            1 RES     
   26757 H6         866.7071  -720.3815  -601.9828 H6            1 RES     
   26758 H6         868.2308  -719.8275  -600.1176 H6            1 RES     
   26759 H6         868.7895  -718.3220  -600.9230 H6            1 RES     
   26760 H6         867.1970  -717.8985  -599.0858 H6            1 RES     
   26761 H6         865.9081  -718.8171  -599.9499 H6            1 RES     
   26762 H6         866.0452  -717.1173  -601.8394 H6            1 RES     
   26763 H6         865.7244  -716.3246  -600.2601 H6            1 RES     
   26764 H6         867.3837  -716.2767  -600.9604 H6            1 RES     
   26765 C0         873.1270  -723.7350  -605.5596 C0            1 RES     
   26766 C0         873.4397  -724.9801  -604.6118 C0            1 RES     
   26767 C0         874.9511  -724.8673  -604.2177 C0            1 RES     
   26768 C0         875.5521  -726.1047  -603.5207 C0            1 RES     
   26769 C0         877.0316  -725.9409  -603.1303 C0            1 RES     
   26770 C0         878.0041  -725.6732  -604.2929 C0            1 RES     
   26771 C0         877.9456  -726.6933  -605.4421 C0            1 RES     
   26772 C0         878.2076  -728.1407  -604.9900 C0            1 RES     
   26773 C0         878.1406  -729.1482  -606.1491 C0            1 RES     
   26774 C0         879.2738  -728.9590  -607.1734 C0            1 RES     
   26775 C0         879.2833  -730.0407  -608.2647 C0            1 RES     
   26776 C0         878.0520  -729.9957  -609.1696 C0            1 RES     
   26777 C0         872.5572  -725.4342  -603.3741 C0            1 RES     
   26778 C0         872.4432  -724.5733  -602.0842 C0            1 RES     
   26779 C0         871.0754  -723.8778  -601.9628 C0            1 RES     
   26780 C0         870.8822  -722.9592  -600.7676 C0            1 RES     
   26781 C0         870.7199  -723.6215  -599.4067 C0            1 RES     
   26782 C0         870.3670  -722.5067  -598.4009 C0            1 RES     
   26783 C0         870.0140  -723.0055  -596.9985 C0            1 RES     
   26784 C0         868.7013  -723.7899  -596.9745 C0            1 RES     
   26785 H6         873.8080  -722.8969  -605.2825 H6            1 RES     
   26786 H6         873.5576  -724.0276  -606.5440 H6            1 RES     
   26787 H6         873.3399  -725.8582  -605.2908 H6            1 RES     
   26788 H6         875.0883  -723.9864  -603.5540 H6            1 RES     
   26789 H6         875.5316  -724.6879  -605.1481 H6            1 RES     
   26790 H6         875.4233  -726.9929  -604.1742 H6            1 RES     
   26791 H6         875.0330  -726.2962  -602.5616 H6            1 RES     
   26792 H6         877.3465  -726.8671  -602.6036 H6            1 RES     
   26793 H6         877.1269  -725.1079  -602.3995 H6            1 RES     
   26794 H6         879.0348  -725.6517  -603.8760 H6            1 RES     
   26795 H6         877.8016  -724.6660  -604.7155 H6            1 RES     
   26796 H6         876.9524  -726.6389  -605.9369 H6            1 RES     
   26797 H6         878.7104  -726.3824  -606.1826 H6            1 RES     
   26798 H6         877.4231  -728.4373  -604.2628 H6            1 RES     
   26799 H6         879.1952  -728.2139  -604.4852 H6            1 RES     
   26800 H6         878.2330  -730.1674  -605.7146 H6            1 RES     
   26801 H6         877.1462  -729.0671  -606.6373 H6            1 RES     
   26802 H6         879.2079  -727.9646  -607.6610 H6            1 RES     
   26803 H6         880.2427  -729.0194  -606.6311 H6            1 RES     
   26804 H6         879.3674  -731.0461  -607.7979 H6            1 RES     
   26805 H6         880.1801  -729.8787  -608.9008 H6            1 RES     
   26806 H6         877.1243  -730.2042  -608.5995 H6            1 RES     
   26807 H6         877.9701  -729.0010  -609.6573 H6            1 RES     
   26808 H6         878.1492  -730.7704  -609.9591 H6            1 RES     
   26809 H6         873.0064  -726.3901  -603.0476 H6            1 RES     
   26810 H6         871.5723  -725.8436  -603.6673 H6            1 RES     
   26811 H6         872.4786  -725.2636  -601.2128 H6            1 RES     
   26812 H6         873.3030  -723.8791  -601.9933 H6            1 RES     
   26813 H6         870.2561  -724.6313  -601.9973 H6            1 RES     
   26814 H6         870.9364  -723.1963  -602.7946 H6            1 RES     
   26815 H6         871.6842  -722.1896  -600.7485 H6            1 RES     
   26816 H6         869.9123  -722.4663  -600.9459 H6            1 RES     
   26817 H6         869.8896  -724.3550  -599.4837 H6            1 RES     
   26818 H6         871.6480  -724.1495  -599.1037 H6            1 RES     
   26819 H6         871.2388  -721.8197  -598.3284 H6            1 RES     
   26820 H6         869.5006  -721.9119  -598.7718 H6            1 RES     
   26821 H6         869.8786  -722.1097  -596.3535 H6            1 RES     
   26822 H6         870.8442  -723.6151  -596.5899 H6            1 RES     
   26823 H6         868.7757  -724.7230  -597.5675 H6            1 RES     
   26824 H6         868.4569  -724.0627  -595.9274 H6            1 RES     
   26825 H6         867.8729  -723.1670  -597.3777 H6            1 RES     
   26826 C0         870.9357  -725.2103  -618.6802 C0            1 RES     
   26827 C1         871.0083  -724.2381  -617.4821 C1            1 RES     
   26828 C1         871.3469  -722.9776  -617.8587 C1            1 RES     
   26829 S2         871.5245  -721.9196  -616.5736 S2            1 RES     
   26830 C1         871.1909  -723.1394  -615.4370 C1            1 RES     
   26831 C1         870.9492  -724.3564  -616.0835 C1            1 RES     
   26832 C1         871.5617  -722.9618  -619.2538 C1            1 RES     
   26833 C1         871.4233  -724.2239  -619.7424 C1            1 RES     
   26834 C1         871.7612  -724.3097  -621.0876 C1            1 RES     
   26835 C1         872.1227  -723.0475  -621.5883 C1            1 RES     
   26836 S2         872.0447  -721.8470  -620.3899 S2            1 RES     
   26837 H3         870.7942  -725.2646  -615.5325 H3            1 RES     
   26838 H3         871.7517  -725.2256  -621.6662 H3            1 RES     
   26839 N4         872.4215  -721.6884  -625.0688 N4            1 RES     
   26840 C1         871.9083  -721.9780  -623.8372 C1            1 RES     
   26841 C1         872.6328  -722.7649  -622.9253 C1            1 RES     
   26842 C1         873.8964  -723.2197  -623.3067 C1            1 RES     
   26843 N4         874.7214  -723.9376  -622.5021 N4            1 RES     
   26844 S2         876.0620  -724.1233  -623.4508 S2            1 RES     
   26845 N4         875.6651  -723.3402  -624.8534 N4            1 RES     
   26846 C1         874.4152  -722.8888  -624.5837 C1            1 RES     
   26847 C1         873.6495  -722.1280  -625.4633 C1            1 RES     
   26848 H5         870.9254  -721.6012  -623.5679 H5            1 RES     
   26849 C0         869.5451  -725.7800  -619.1325 C0            1 RES     
   26850 C0         868.3390  -725.0699  -619.8556 C0            1 RES     
   26851 C0         867.2018  -726.1498  -619.9099 C0            1 RES     
   26852 C0         865.9088  -725.7578  -620.6357 C0            1 RES     
   26853 C0         864.8433  -726.8778  -620.5818 C0            1 RES     
   26854 C0         865.2275  -728.2057  -621.2710 C0            1 RES     
   26855 C0         865.6490  -728.0724  -622.7450 C0            1 RES     
   26856 C0         864.5681  -727.4192  -623.6246 C0            1 RES     
   26857 C0         865.0125  -727.2364  -625.0829 C0            1 RES     
   26858 C0         865.2027  -728.5675  -625.8295 C0            1 RES     
   26859 C0         865.5353  -728.3714  -627.3172 C0            1 RES     
   26860 C0         866.8897  -727.7003  -627.5483 C0            1 RES     
   26861 C0         867.8184  -723.6957  -619.3211 C0            1 RES     
   26862 C0         867.1756  -723.6236  -617.9018 C0            1 RES     
   26863 C0         867.9778  -722.6410  -617.0434 C0            1 RES     
   26864 C0         867.7423  -722.6487  -615.5357 C0            1 RES     
   26865 C0         866.5080  -721.9099  -615.0395 C0            1 RES     
   26866 C0         866.4920  -722.0031  -613.4993 C0            1 RES     
   26867 C0         865.4154  -721.1473  -612.8279 C0            1 RES     
   26868 C0         865.6893  -719.6491  -612.9754 C0            1 RES     
   26869 H6         869.1074  -726.2150  -618.2706 H6            1 RES     
   26870 H6         869.8037  -726.6095  -619.8288 H6            1 RES     
   26871 H6         868.6731  -724.8572  -620.8957 H6            1 RES     
   26872 H6         866.9208  -726.4385  -618.8735 H6            1 RES     
   26873 H6         867.6157  -727.0522  -620.4087 H6            1 RES     
   26874 H6         866.1307  -725.4789  -621.6859 H6            1 RES     
   26875 H6         865.4580  -724.8802  -620.1299 H6            1 RES     
   26876 H6         863.9121  -726.4905  -621.0445 H6            1 RES     
   26877 H6         864.5979  -727.1001  -619.5196 H6            1 RES     
   26878 H6         864.3550  -728.8933  -621.2051 H6            1 RES     
   26879 H6         866.0595  -728.6888  -620.7155 H6            1 RES     
   26880 H6         866.5840  -727.4765  -622.8059 H6            1 RES     
   26881 H6         865.8735  -729.0934  -623.1173 H6            1 RES     
   26882 H6         864.3568  -726.4021  -623.2362 H6            1 RES     
   26883 H6         863.6277  -728.0113  -623.5839 H6            1 RES     
   26884 H6         864.2198  -726.6573  -625.6048 H6            1 RES     
   26885 H6         865.9467  -726.6365  -625.0951 H6            1 RES     
   26886 H6         866.0044  -729.1752  -625.3610 H6            1 RES     
   26887 H6         864.2497  -729.1369  -625.7683 H6            1 RES     
   26888 H6         864.7349  -727.7751  -627.8071 H6            1 RES     
   26889 H6         865.5642  -729.3723  -627.7994 H6            1 RES     
   26890 H6         866.9074  -726.6719  -627.1345 H6            1 RES     
   26891 H6         867.6991  -728.3000  -627.0801 H6            1 RES     
   26892 H6         867.0842  -727.6315  -628.6390 H6            1 RES     
   26893 H6         867.0540  -723.3249  -620.0371 H6            1 RES     
   26894 H6         868.6332  -722.9485  -619.4327 H6            1 RES     
   26895 H6         866.1265  -723.2564  -617.9615 H6            1 RES     
   26896 H6         867.1633  -724.6306  -617.4375 H6            1 RES     
   26897 H6         867.9580  -721.6093  -617.4536 H6            1 RES     
   26898 H6         868.9807  -723.0013  -617.1313 H6            1 RES     
   26899 H6         867.7528  -723.6810  -615.1776 H6            1 RES     
   26900 H6         868.6187  -722.1347  -615.0793 H6            1 RES     
   26901 H6         866.6021  -720.8541  -615.3712 H6            1 RES     
   26902 H6         865.5773  -722.3445  -615.4616 H6            1 RES     
   26903 H6         866.3284  -723.0691  -613.2215 H6            1 RES     
   26904 H6         867.4768  -721.6948  -613.0802 H6            1 RES     
   26905 H6         865.4280  -721.3808  -611.7404 H6            1 RES     
   26906 H6         864.4129  -721.4033  -613.2307 H6            1 RES     
   26907 H6         865.6533  -719.3318  -614.0362 H6            1 RES     
   26908 H6         864.9229  -719.0756  -612.4157 H6            1 RES     
   26909 H6         866.6895  -719.4000  -612.5556 H6            1 RES     
   26910 C0         871.9690  -726.3568  -618.3432 C0            1 RES     
   26911 C0         871.6003  -727.8745  -618.0166 C0            1 RES     
   26912 C0         872.8199  -728.4671  -617.2331 C0            1 RES     
   26913 C0         872.8088  -729.9972  -617.0412 C0            1 RES     
   26914 C0         874.0127  -730.5327  -616.2462 C0            1 RES     
   26915 C0         875.3964  -730.2558  -616.8609 C0            1 RES     
   26916 C0         875.5690  -730.7182  -618.3172 C0            1 RES     
   26917 C0         875.3049  -732.2209  -618.5180 C0            1 RES     
   26918 C0         875.4767  -732.6658  -619.9794 C0            1 RES     
   26919 C0         876.9321  -732.5634  -620.4695 C0            1 RES     
   26920 C0         877.1292  -733.1240  -621.8865 C0            1 RES     
   26921 C0         876.3950  -732.3211  -622.9606 C0            1 RES     
   26922 C0         870.2263  -728.3715  -617.3986 C0            1 RES     
   26923 C0         869.8091  -728.0320  -615.9396 C0            1 RES     
   26924 C0         868.6945  -726.9721  -615.8803 C0            1 RES     
   26925 C0         868.2565  -726.5210  -614.4967 C0            1 RES     
   26926 C0         867.4309  -727.5043  -613.6789 C0            1 RES     
   26927 C0         866.9683  -726.7596  -612.4099 C0            1 RES     
   26928 C0         865.9923  -727.5461  -611.5329 C0            1 RES     
   26929 C0         864.6372  -727.7512  -612.2117 C0            1 RES     
   26930 H6         872.6538  -725.9780  -617.5492 H6            1 RES     
   26931 H6         872.6748  -726.4269  -619.2016 H6            1 RES     
   26932 H6         871.5831  -728.3618  -619.0188 H6            1 RES     
   26933 H6         872.8772  -727.9859  -616.2329 H6            1 RES     
   26934 H6         873.7430  -728.2031  -617.7927 H6            1 RES     
   26935 H6         872.7536  -730.4913  -618.0339 H6            1 RES     
   26936 H6         871.9267  -730.3041  -616.4465 H6            1 RES     
   26937 H6         873.8820  -731.6302  -616.1337 H6            1 RES     
   26938 H6         873.9956  -730.1008  -615.2215 H6            1 RES     
   26939 H6         876.1577  -730.7589  -616.2254 H6            1 RES     
   26940 H6         875.6046  -729.1654  -616.8185 H6            1 RES     
   26941 H6         874.8886  -730.1363  -618.9750 H6            1 RES     
   26942 H6         876.6113  -730.4737  -618.6072 H6            1 RES     
   26943 H6         874.2535  -732.4411  -618.2382 H6            1 RES     
   26944 H6         875.9723  -732.8205  -617.8618 H6            1 RES     
   26945 H6         875.1629  -733.7304  -620.0459 H6            1 RES     
   26946 H6         874.7985  -732.0627  -620.6197 H6            1 RES     
   26947 H6         877.2849  -731.5117  -620.4526 H6            1 RES     
   26948 H6         877.5709  -733.1581  -619.7805 H6            1 RES     
   26949 H6         876.7983  -734.1848  -621.9215 H6            1 RES     
   26950 H6         878.2152  -733.0927  -622.1202 H6            1 RES     
   26951 H6         875.2970  -732.3586  -622.8123 H6            1 RES     
   26952 H6         876.7336  -731.2633  -622.9477 H6            1 RES     
   26953 H6         876.6199  -732.7530  -623.9584 H6            1 RES     
   26954 H6         870.2873  -729.4747  -617.4349 H6            1 RES     
   26955 H6         869.3713  -728.2630  -618.0922 H6            1 RES     
   26956 H6         869.3458  -728.9426  -615.4999 H6            1 RES     
   26957 H6         870.6948  -727.7788  -615.3224 H6            1 RES     
   26958 H6         867.8096  -727.3109  -616.4656 H6            1 RES     
   26959 H6         869.0478  -726.0448  -616.3174 H6            1 RES     
   26960 H6         869.1356  -726.1567  -613.9218 H6            1 RES     
   26961 H6         867.5699  -725.6782  -614.6802 H6            1 RES     
   26962 H6         866.5575  -727.8070  -614.2942 H6            1 RES     
   26963 H6         868.0236  -728.4051  -613.4161 H6            1 RES     
   26964 H6         867.8703  -726.5107  -611.8086 H6            1 RES     
   26965 H6         866.4721  -725.8002  -612.6842 H6            1 RES     
   26966 H6         865.8168  -726.9457  -610.6133 H6            1 RES     
   26967 H6         866.4381  -728.5181  -611.2425 H6            1 RES     
   26968 H6         864.7296  -728.3794  -613.1197 H6            1 RES     
   26969 H6         863.9477  -728.2593  -611.5067 H6            1 RES     
   26970 H6         864.1940  -726.7701  -612.4908 H6            1 RES     
   26971 C0         874.8340  -722.2918  -630.7688 C0            1 RES     
   26972 C1         874.6442  -721.8928  -629.2887 C1            1 RES     
   26973 C1         875.3734  -720.7978  -628.9506 C1            1 RES     
   26974 S2         875.2622  -720.3933  -627.3300 S2            1 RES     
   26975 C1         874.2482  -721.7177  -627.0006 C1            1 RES     
   26976 C1         874.0164  -722.4570  -628.1657 C1            1 RES     
   26977 C1         876.1162  -720.3804  -630.0762 C1            1 RES     
   26978 C1         875.9047  -721.2511  -631.1000 C1            1 RES     
   26979 C1         876.7152  -720.9839  -632.1967 C1            1 RES     
   26980 C1         877.5140  -719.8529  -631.9577 C1            1 RES     
   26981 S2         877.2401  -719.2016  -630.4135 S2            1 RES     
   26982 H3         873.4606  -723.3752  -628.1475 H3            1 RES     
   26983 H3         876.7308  -721.5715  -633.1068 H3            1 RES     
   26984 N4         879.4476  -717.5849  -634.2309 N4            1 RES     
   26985 C1         878.4420  -718.0729  -633.4468 C1            1 RES     
   26986 C1         878.5566  -719.3334  -632.8355 C1            1 RES     
   26987 C1         879.7336  -720.0572  -633.0349 C1            1 RES     
   26988 N4         879.9952  -721.2579  -632.4574 N4            1 RES     
   26989 S2         881.5231  -721.5814  -632.9983 S2            1 RES     
   26990 N4         881.8927  -720.2745  -633.9437 N4            1 RES     
   26991 C1         880.7710  -719.5199  -633.8375 C1            1 RES     
   26992 C1         880.6012  -718.2781  -634.4439 C1            1 RES     
   26993 H5         877.5423  -717.4803  -633.3047 H5            1 RES     
   26994 C0         873.6440  -722.1181  -631.7769 C0            1 RES     
   26995 C0         873.0083  -720.8128  -632.3883 C0            1 RES     
   26996 C0         871.7751  -721.3103  -633.2215 C0            1 RES     
   26997 C0         870.9925  -720.2470  -634.0021 C0            1 RES     
   26998 C0         869.7719  -720.8428  -634.7424 C0            1 RES     
   26999 C0         870.0912  -721.8924  -635.8298 C0            1 RES     
   27000 C0         871.0754  -721.4219  -636.9152 C0            1 RES     
   27001 C0         870.6003  -720.1576  -637.6530 C0            1 RES     
   27002 C0         871.6097  -719.6583  -638.6967 C0            1 RES     
   27003 C0         871.7775  -720.6197  -639.8854 C0            1 RES     
   27004 C0         872.7016  -720.0578  -640.9774 C0            1 RES     
   27005 C0         874.1501  -719.8943  -640.5154 C0            1 RES     
   27006 C0         872.6382  -719.6197  -631.4477 C0            1 RES     
   27007 C0         871.5235  -719.8127  -630.3740 C0            1 RES     
   27008 C0         872.1205  -719.5546  -628.9873 C0            1 RES     
   27009 C0         871.3169  -719.9963  -627.7675 C0            1 RES     
   27010 C0         870.1841  -719.0774  -627.3342 C0            1 RES     
   27011 C0         869.5447  -719.6846  -626.0677 C0            1 RES     
   27012 C0         868.5099  -718.7831  -625.3907 C0            1 RES     
   27013 C0         869.1442  -717.5382  -624.7668 C0            1 RES     
   27014 H6         872.8186  -722.6315  -631.3539 H6            1 RES     
   27015 H6         873.9643  -722.6886  -632.6778 H6            1 RES     
   27016 H6         873.7617  -720.3919  -633.0910 H6            1 RES     
   27017 H6         871.0536  -721.8150  -632.5425 H6            1 RES     
   27018 H6         872.1404  -722.0690  -633.9464 H6            1 RES     
   27019 H6         871.6644  -719.7243  -634.7128 H6            1 RES     
   27020 H6         870.5860  -719.4986  -633.2922 H6            1 RES     
   27021 H6         869.2080  -720.0070  -635.2058 H6            1 RES     
   27022 H6         869.0869  -721.3122  -634.0020 H6            1 RES     
   27023 H6         869.1341  -722.1895  -636.3136 H6            1 RES     
   27024 H6         870.5089  -722.8066  -635.3566 H6            1 RES     
   27025 H6         872.0660  -721.2287  -636.4523 H6            1 RES     
   27026 H6         871.1957  -722.2575  -637.6356 H6            1 RES     
   27027 H6         870.4846  -719.3358  -636.9173 H6            1 RES     
   27028 H6         869.6135  -720.3386  -638.1329 H6            1 RES     
   27029 H6         871.2351  -718.6871  -639.0876 H6            1 RES     
   27030 H6         872.5814  -719.4781  -638.1907 H6            1 RES     
   27031 H6         872.1748  -721.6003  -639.5507 H6            1 RES     
   27032 H6         870.7766  -720.7836  -640.3408 H6            1 RES     
   27033 H6         872.3114  -719.0800  -641.3352 H6            1 RES     
   27034 H6         872.6949  -720.7663  -641.8337 H6            1 RES     
   27035 H6         874.2314  -719.1555  -639.6929 H6            1 RES     
   27036 H6         874.5561  -720.8708  -640.1754 H6            1 RES     
   27037 H6         874.7670  -719.5290  -641.3630 H6            1 RES     
   27038 H6         872.3189  -718.7718  -632.0907 H6            1 RES     
   27039 H6         873.5749  -719.2343  -630.9910 H6            1 RES     
   27040 H6         870.6917  -719.0905  -630.5340 H6            1 RES     
   27041 H6         871.1072  -720.8386  -630.4370 H6            1 RES     
   27042 H6         872.4923  -718.5143  -628.8754 H6            1 RES     
   27043 H6         872.9705  -720.2029  -628.9622 H6            1 RES     
   27044 H6         870.9571  -721.0157  -627.9266 H6            1 RES     
   27045 H6         872.0341  -720.0311  -626.9160 H6            1 RES     
   27046 H6         870.6321  -718.0852  -627.1145 H6            1 RES     
   27047 H6         869.4225  -718.9660  -628.1347 H6            1 RES     
   27048 H6         869.0536  -720.6416  -626.3561 H6            1 RES     
   27049 H6         870.3278  -719.9240  -625.3127 H6            1 RES     
   27050 H6         868.0427  -719.3654  -624.5661 H6            1 RES     
   27051 H6         867.7163  -718.4976  -626.1128 H6            1 RES     
   27052 H6         869.5986  -716.8841  -625.5369 H6            1 RES     
   27053 H6         868.3674  -716.9556  -624.2313 H6            1 RES     
   27054 H6         869.9276  -717.8346  -624.0339 H6            1 RES     
   27055 C0         875.3703  -723.7773  -630.7292 C0            1 RES     
   27056 C0         874.5768  -725.0662  -631.2342 C0            1 RES     
   27057 C0         875.2268  -726.2958  -630.5145 C0            1 RES     
   27058 C0         874.8026  -727.6799  -631.0461 C0            1 RES     
   27059 C0         875.4468  -728.8584  -630.2949 C0            1 RES     
   27060 C0         876.9845  -728.9136  -630.3305 C0            1 RES     
   27061 C0         877.6076  -728.8728  -631.7357 C0            1 RES     
   27062 C0         877.1177  -730.0047  -632.6560 C0            1 RES     
   27063 C0         877.7459  -729.9467  -634.0579 C0            1 RES     
   27064 C0         879.2602  -730.2220  -634.0474 C0            1 RES     
   27065 C0         879.8679  -730.2885  -635.4572 C0            1 RES     
   27066 C0         879.8118  -728.9546  -636.2020 C0            1 RES     
   27067 C0         872.9975  -725.2058  -631.2928 C0            1 RES     
   27068 C0         872.1279  -725.2642  -630.0050 C0            1 RES     
   27069 C0         871.3444  -723.9607  -629.7674 C0            1 RES     
   27070 C0         870.5104  -723.8890  -628.4989 C0            1 RES     
   27071 C0         869.2347  -724.7187  -628.4633 C0            1 RES     
   27072 C0         868.4887  -724.3447  -627.1662 C0            1 RES     
   27073 C0         867.0991  -724.9698  -627.0305 C0            1 RES     
   27074 C0         866.1102  -724.4158  -628.0573 C0            1 RES     
   27075 H6         875.7540  -723.9755  -629.7013 H6            1 RES     
   27076 H6         876.3217  -723.7996  -631.3074 H6            1 RES     
   27077 H6         874.8467  -725.1344  -632.3133 H6            1 RES     
   27078 H6         874.9921  -726.2469  -629.4292 H6            1 RES     
   27079 H6         876.3289  -726.2125  -630.6299 H6            1 RES     
   27080 H6         875.0333  -727.7433  -632.1302 H6            1 RES     
   27081 H6         873.7138  -727.8274  -630.9095 H6            1 RES     
   27082 H6         875.0427  -729.7975  -630.7298 H6            1 RES     
   27083 H6         875.1251  -728.8334  -629.2305 H6            1 RES     
   27084 H6         877.3034  -729.8469  -629.8168 H6            1 RES     
   27085 H6         877.3954  -728.0626  -629.7465 H6            1 RES     
   27086 H6         877.3872  -727.8934  -632.2116 H6            1 RES     
   27087 H6         878.7060  -728.9432  -631.5988 H6            1 RES     
   27088 H6         876.0205  -729.9065  -632.7930 H6            1 RES     
   27089 H6         877.3232  -730.9940  -632.1928 H6            1 RES     
   27090 H6         877.2560  -730.7283  -634.6784 H6            1 RES     
   27091 H6         877.5253  -728.9558  -634.5086 H6            1 RES     
   27092 H6         879.8015  -729.4485  -633.4646 H6            1 RES     
   27093 H6         879.4284  -731.2079  -633.5615 H6            1 RES     
   27094 H6         879.3513  -731.0715  -636.0536 H6            1 RES     
   27095 H6         880.9361  -730.5785  -635.3572 H6            1 RES     
   27096 H6         878.7651  -728.6359  -636.3806 H6            1 RES     
   27097 H6         880.3434  -728.1693  -635.6235 H6            1 RES     
   27098 H6         880.3084  -729.0650  -637.1889 H6            1 RES     
   27099 H6         872.8219  -726.1686  -631.8068 H6            1 RES     
   27100 H6         872.5305  -724.5590  -632.0591 H6            1 RES     
   27101 H6         871.3400  -726.0331  -630.1638 H6            1 RES     
   27102 H6         872.7324  -725.5833  -629.1321 H6            1 RES     
   27103 H6         870.7090  -723.7269  -630.6517 H6            1 RES     
   27104 H6         872.0367  -723.1380  -629.6278 H6            1 RES     
   27105 H6         871.1503  -724.0951  -627.6135 H6            1 RES     
   27106 H6         870.1561  -722.8460  -628.4541 H6            1 RES     
   27107 H6         868.6293  -724.4475  -629.3539 H6            1 RES     
   27108 H6         869.4611  -725.8049  -628.4913 H6            1 RES     
   27109 H6         869.1131  -724.6680  -626.3044 H6            1 RES     
   27110 H6         868.3659  -723.2393  -627.0961 H6            1 RES     
   27111 H6         866.7146  -724.7048  -626.0211 H6            1 RES     
   27112 H6         867.1677  -726.0732  -627.1058 H6            1 RES     
   27113 H6         866.4098  -724.6784  -629.0913 H6            1 RES     
   27114 H6         865.1055  -724.8459  -627.8672 H6            1 RES     
   27115 H6         866.0415  -723.3094  -627.9677 H6            1 RES     
   27116 C0         883.7041  -717.0192  -638.7294 C0            1 RES     
   27117 C1         883.0423  -717.1167  -637.3372 C1            1 RES     
   27118 C1         883.8032  -716.5548  -636.3622 C1            1 RES     
   27119 S2         883.1576  -716.7250  -634.8271 S2            1 RES     
   27120 C1         881.8297  -717.6115  -635.4115 C1            1 RES     
   27121 C1         881.9162  -717.7623  -636.7999 C1            1 RES     
   27122 C1         885.0004  -716.0772  -636.9379 C1            1 RES     
   27123 C1         885.0204  -716.3978  -638.2599 C1            1 RES     
   27124 C1         886.2336  -716.0848  -638.8612 C1            1 RES     
   27125 C1         887.1034  -715.4830  -637.9362 C1            1 RES     
   27126 S2         886.3973  -715.3540  -636.3973 S2            1 RES     
   27127 H3         881.2095  -718.3582  -637.3456 H3            1 RES     
   27128 H3         886.4743  -716.2834  -639.8987 H3            1 RES     
   27129 N4         890.2240  -713.4462  -638.3404 N4            1 RES     
   27130 C1         888.9105  -713.7705  -638.1567 C1            1 RES     
   27131 C1         888.4937  -715.1127  -638.1759 C1            1 RES     
   27132 C1         889.4623  -716.1003  -638.3645 C1            1 RES     
   27133 N4         889.2033  -717.4330  -638.3468 N4            1 RES     
   27134 S2         890.7078  -718.0852  -638.5534 S2            1 RES     
   27135 N4         891.6982  -716.7647  -638.6710 N4            1 RES     
   27136 C1         890.8224  -715.7387  -638.5333 C1            1 RES     
   27137 C1         891.1839  -714.3941  -638.5329 C1            1 RES     
   27138 H5         888.1829  -712.9782  -638.0035 H5            1 RES     
   27139 C0         883.0757  -716.0845  -639.8222 C0            1 RES     
   27140 C0         883.0374  -714.5126  -639.9196 C0            1 RES     
   27141 C0         882.1532  -714.2025  -641.1784 C0            1 RES     
   27142 C0         881.9964  -712.7274  -641.5680 C0            1 RES     
   27143 C0         881.0652  -712.5390  -642.7887 C0            1 RES     
   27144 C0         881.5444  -713.1866  -644.1066 C0            1 RES     
   27145 C0         882.9531  -712.7655  -644.5608 C0            1 RES     
   27146 C0         883.0986  -711.2442  -644.7423 C0            1 RES     
   27147 C0         884.5199  -710.8218  -645.1411 C0            1 RES     
   27148 C0         884.9231  -711.3028  -646.5452 C0            1 RES     
   27149 C0         886.3010  -710.7784  -646.9794 C0            1 RES     
   27150 C0         887.4491  -711.3276  -646.1316 C0            1 RES     
   27151 C0         882.6022  -713.6717  -638.6752 C0            1 RES     
   27152 C0         881.1430  -713.8013  -638.1398 C0            1 RES     
   27153 C0         881.1891  -714.2765  -636.6844 C0            1 RES     
   27154 C0         879.8952  -714.7854  -636.0553 C0            1 RES     
   27155 C0         878.9175  -713.7264  -635.5675 C0            1 RES     
   27156 C0         877.7153  -714.4546  -634.9306 C0            1 RES     
   27157 C0         876.7255  -713.5308  -634.2171 C0            1 RES     
   27158 C0         877.3228  -712.9035  -632.9557 C0            1 RES     
   27159 H6         882.0592  -716.3719  -639.9105 H6            1 RES     
   27160 H6         883.5888  -716.3832  -640.7642 H6            1 RES     
   27161 H6         884.0789  -714.1821  -640.1304 H6            1 RES     
   27162 H6         881.1308  -714.6090  -641.0173 H6            1 RES     
   27163 H6         882.5956  -714.7411  -642.0436 H6            1 RES     
   27164 H6         882.9909  -712.2763  -641.7609 H6            1 RES     
   27165 H6         881.5207  -712.1775  -640.7310 H6            1 RES     
   27166 H6         880.9288  -711.4502  -642.9536 H6            1 RES     
   27167 H6         880.0592  -712.9495  -642.5497 H6            1 RES     
   27168 H6         880.8139  -712.9254  -644.9046 H6            1 RES     
   27169 H6         881.5290  -714.2930  -644.0073 H6            1 RES     
   27170 H6         883.6986  -713.1216  -643.8189 H6            1 RES     
   27171 H6         883.1580  -713.2823  -645.5213 H6            1 RES     
   27172 H6         882.8887  -710.7463  -643.7738 H6            1 RES     
   27173 H6         882.3659  -710.8731  -645.4921 H6            1 RES     
   27174 H6         884.5539  -709.7105  -645.1332 H6            1 RES     
   27175 H6         885.2287  -711.1971  -644.3734 H6            1 RES     
   27176 H6         884.9291  -712.4112  -646.5994 H6            1 RES     
   27177 H6         884.1719  -710.9202  -647.2702 H6            1 RES     
   27178 H6         886.3097  -709.6670  -646.9443 H6            1 RES     
   27179 H6         886.4740  -711.0918  -648.0315 H6            1 RES     
   27180 H6         887.3626  -711.0035  -645.0749 H6            1 RES     
   27181 H6         887.4617  -712.4373  -646.1771 H6            1 RES     
   27182 H6         888.4133  -710.9449  -646.5269 H6            1 RES     
   27183 H6         882.7574  -712.5999  -638.9234 H6            1 RES     
   27184 H6         883.3447  -713.8398  -637.8658 H6            1 RES     
   27185 H6         880.6232  -712.8173  -638.1676 H6            1 RES     
   27186 H6         880.5688  -714.5132  -638.7668 H6            1 RES     
   27187 H6         881.7076  -713.5527  -636.0209 H6            1 RES     
   27188 H6         881.7944  -715.1566  -636.7333 H6            1 RES     
   27189 H6         879.4106  -715.4792  -636.7466 H6            1 RES     
   27190 H6         880.1937  -715.3726  -635.1572 H6            1 RES     
   27191 H6         879.4511  -713.1093  -634.8138 H6            1 RES     
   27192 H6         878.5764  -713.0744  -636.3992 H6            1 RES     
   27193 H6         877.1779  -715.0016  -635.7381 H6            1 RES     
   27194 H6         878.0650  -715.2093  -634.1898 H6            1 RES     
   27195 H6         875.8559  -714.1477  -633.9003 H6            1 RES     
   27196 H6         876.3637  -712.7437  -634.9117 H6            1 RES     
   27197 H6         878.1755  -712.2387  -633.1969 H6            1 RES     
   27198 H6         876.5483  -712.3007  -632.4395 H6            1 RES     
   27199 H6         877.6689  -713.6999  -632.2596 H6            1 RES     
   27200 C0         883.8382  -718.5125  -639.2269 C0            1 RES     
   27201 C0         883.0424  -719.1607  -640.4487 C0            1 RES     
   27202 C0         883.0678  -720.7098  -640.2211 C0            1 RES     
   27203 C0         882.5911  -721.5662  -641.4116 C0            1 RES     
   27204 C0         882.6103  -723.0800  -641.1356 C0            1 RES     
   27205 C0         883.9848  -723.6788  -640.7874 C0            1 RES     
   27206 C0         885.1015  -723.3859  -641.8032 C0            1 RES     
   27207 C0         884.7744  -723.8660  -643.2282 C0            1 RES     
   27208 C0         885.8981  -723.5613  -644.2320 C0            1 RES     
   27209 C0         887.1849  -724.3576  -643.9504 C0            1 RES     
   27210 C0         888.2659  -724.1502  -645.0227 C0            1 RES     
   27211 C0         888.8036  -722.7199  -645.0687 C0            1 RES     
   27212 C0         881.6246  -718.6824  -640.9761 C0            1 RES     
   27213 C0         880.3300  -718.8595  -640.1331 C0            1 RES     
   27214 C0         879.8261  -717.5286  -639.5464 C0            1 RES     
   27215 C0         878.5998  -717.5997  -638.6515 C0            1 RES     
   27216 C0         877.2631  -717.8614  -639.3312 C0            1 RES     
   27217 C0         876.1710  -717.7135  -638.2521 C0            1 RES     
   27218 C0         874.7388  -717.7913  -638.7839 C0            1 RES     
   27219 C0         874.3817  -716.5954  -639.6678 C0            1 RES     
   27220 H6         883.7335  -719.1797  -638.3399 H6            1 RES     
   27221 H6         884.9094  -718.6805  -639.4803 H6            1 RES     
   27222 H6         883.6917  -718.9453  -641.3285 H6            1 RES     
   27223 H6         882.4434  -720.9569  -639.3355 H6            1 RES     
   27224 H6         884.1154  -721.0017  -639.9926 H6            1 RES     
   27225 H6         883.2084  -721.3307  -642.3038 H6            1 RES     
   27226 H6         881.5328  -721.3420  -641.6475 H6            1 RES     
   27227 H6         882.2122  -723.5929  -642.0371 H6            1 RES     
   27228 H6         881.9111  -723.3086  -640.3014 H6            1 RES     
   27229 H6         883.8612  -724.7794  -640.6881 H6            1 RES     
   27230 H6         884.3110  -723.2961  -639.7968 H6            1 RES     
   27231 H6         885.3085  -722.2945  -641.8235 H6            1 RES     
   27232 H6         886.0127  -723.8964  -641.4302 H6            1 RES     
   27233 H6         883.8705  -723.3319  -643.5884 H6            1 RES     
   27234 H6         884.5570  -724.9561  -643.2271 H6            1 RES     
   27235 H6         885.5311  -723.8425  -645.2432 H6            1 RES     
   27236 H6         886.0977  -722.4687  -644.2258 H6            1 RES     
   27237 H6         887.6109  -724.0892  -642.9617 H6            1 RES     
   27238 H6         886.9260  -725.4389  -643.9382 H6            1 RES     
   27239 H6         887.8652  -724.4311  -646.0209 H6            1 RES     
   27240 H6         889.1160  -724.8267  -644.7884 H6            1 RES     
   27241 H6         888.0099  -721.9993  -645.3514 H6            1 RES     
   27242 H6         889.2252  -722.4362  -644.0809 H6            1 RES     
   27243 H6         889.6097  -722.6560  -645.8296 H6            1 RES     
   27244 H6         881.4561  -719.2721  -641.8959 H6            1 RES     
   27245 H6         881.6516  -717.6876  -641.4592 H6            1 RES     
   27246 H6         879.5186  -719.1802  -640.8230 H6            1 RES     
   27247 H6         880.4565  -719.6585  -639.3748 H6            1 RES     
   27248 H6         879.6577  -716.7881  -640.3610 H6            1 RES     
   27249 H6         880.5716  -717.1198  -638.8735 H6            1 RES     
   27250 H6         878.7780  -718.3183  -637.8222 H6            1 RES     
   27251 H6         878.4970  -716.5844  -638.2344 H6            1 RES     
   27252 H6         877.1322  -717.0974  -640.1265 H6            1 RES     
   27253 H6         877.2356  -718.8729  -639.7872 H6            1 RES     
   27254 H6         876.3187  -718.5195  -637.5000 H6            1 RES     
   27255 H6         876.2789  -716.7378  -637.7245 H6            1 RES     
   27256 H6         874.0582  -717.7705  -637.9045 H6            1 RES     
   27257 H6         874.5852  -718.7436  -639.3292 H6            1 RES     
   27258 H6         874.9967  -716.5745  -640.5894 H6            1 RES     
   27259 H6         873.3149  -716.6646  -639.9640 H6            1 RES     
   27260 H6         874.5302  -715.6454  -639.1090 H6            1 RES     
   27261 C0         895.9143  -712.9616  -640.8020 C0            1 RES     
   27262 C1         894.7556  -713.2847  -639.8331 C1            1 RES     
   27263 C1         895.1769  -713.4152  -638.5483 C1            1 RES     
   27264 S2         893.9605  -713.8565  -637.4862 S2            1 RES     
   27265 C1         892.8080  -713.9337  -638.7338 C1            1 RES     
   27266 C1         893.3965  -713.6157  -639.9627 C1            1 RES     
   27267 C1         896.5774  -713.2422  -638.5088 C1            1 RES     
   27268 C1         897.0429  -713.0694  -639.7755 C1            1 RES     
   27269 C1         898.4312  -713.0355  -639.8280 C1            1 RES     
   27270 C1         898.9781  -713.1542  -638.5392 C1            1 RES     
   27271 S2         897.7725  -713.3162  -637.3544 S2            1 RES     
   27272 H3         892.8477  -713.6828  -640.8828 H3            1 RES     
   27273 H3         899.0092  -712.9366  -640.7391 H3            1 RES     
   27274 N4         902.3738  -712.3982  -637.1436 N4            1 RES     
   27275 C1         901.0573  -712.2606  -637.4783 C1            1 RES     
   27276 C1         900.3953  -713.2608  -638.2112 C1            1 RES     
   27277 C1         901.1152  -714.4035  -638.5647 C1            1 RES     
   27278 N4         900.5818  -715.4660  -639.2205 N4            1 RES     
   27279 S2         901.8615  -716.5092  -639.2969 S2            1 RES     
   27280 N4         903.0843  -715.6907  -638.5399 N4            1 RES     
   27281 C1         902.4758  -714.5311  -638.1882 C1            1 RES     
   27282 C1         903.0962  -713.5021  -637.4846 C1            1 RES     
   27283 H5         900.5231  -711.3626  -637.1801 H5            1 RES     
   27284 C0         895.9893  -711.5461  -641.4755 C0            1 RES     
   27285 C0         896.3415  -710.1405  -640.8575 C0            1 RES     
   27286 C0         896.1148  -709.1135  -642.0220 C0            1 RES     
   27287 C0         896.4545  -707.6471  -641.7279 C0            1 RES     
   27288 C0         896.1440  -706.7210  -642.9274 C0            1 RES     
   27289 C0         896.9453  -707.0004  -644.2180 C0            1 RES     
   27290 C0         898.4744  -706.9957  -644.0450 C0            1 RES     
   27291 C0         899.0126  -705.6720  -643.4733 C0            1 RES     
   27292 C0         900.5315  -705.6900  -643.2492 C0            1 RES     
   27293 C0         901.3358  -705.7677  -644.5579 C0            1 RES     
   27294 C0         902.8525  -705.6694  -644.3291 C0            1 RES     
   27295 C0         903.4230  -706.8575  -643.5539 C0            1 RES     
   27296 C0         895.6511  -709.6850  -639.5305 C0            1 RES     
   27297 C0         894.1096  -709.4474  -639.5156 C0            1 RES     
   27298 C0         893.4744  -710.3780  -638.4780 C0            1 RES     
   27299 C0         891.9598  -710.5611  -638.5115 C0            1 RES     
   27300 C0         891.1301  -709.4567  -637.8731 C0            1 RES     
   27301 C0         889.6456  -709.8656  -637.9750 C0            1 RES     
   27302 C0         888.6867  -708.9516  -637.2086 C0            1 RES     
   27303 C0         888.8640  -709.0647  -635.6930 C0            1 RES     
   27304 H6         895.0527  -711.3914  -641.9475 H6            1 RES     
   27305 H6         896.7507  -711.6664  -642.2790 H6            1 RES     
   27306 H6         897.4273  -710.1637  -640.6144 H6            1 RES     
   27307 H6         895.0488  -709.1458  -642.3368 H6            1 RES     
   27308 H6         896.7299  -709.4416  -642.8871 H6            1 RES     
   27309 H6         897.5180  -707.5550  -641.4273 H6            1 RES     
   27310 H6         895.8233  -707.2871  -640.8904 H6            1 RES     
   27311 H6         896.3281  -705.6735  -642.6111 H6            1 RES     
   27312 H6         895.0611  -706.7897  -643.1733 H6            1 RES     
   27313 H6         896.6642  -706.2312  -644.9716 H6            1 RES     
   27314 H6         896.6475  -707.9849  -644.6379 H6            1 RES     
   27315 H6         898.7700  -707.8329  -643.3782 H6            1 RES     
   27316 H6         898.9197  -707.1851  -645.0437 H6            1 RES     
   27317 H6         898.5555  -705.4999  -642.4776 H6            1 RES     
   27318 H6         898.7349  -704.8238  -644.1367 H6            1 RES     
   27319 H6         900.8050  -704.7452  -642.7308 H6            1 RES     
   27320 H6         900.7798  -706.5393  -642.5787 H6            1 RES     
   27321 H6         901.1169  -706.7087  -645.1039 H6            1 RES     
   27322 H6         901.0344  -704.9113  -645.1998 H6            1 RES     
   27323 H6         903.0927  -704.7247  -643.7942 H6            1 RES     
   27324 H6         903.3503  -705.6398  -645.3223 H6            1 RES     
   27325 H6         903.0030  -706.9112  -642.5293 H6            1 RES     
   27326 H6         903.2063  -707.8051  -644.0913 H6            1 RES     
   27327 H6         904.5237  -706.7435  -643.4647 H6            1 RES     
   27328 H6         896.1244  -708.7301  -639.2165 H6            1 RES     
   27329 H6         895.9590  -710.3820  -638.7219 H6            1 RES     
   27330 H6         893.8745  -708.3974  -639.2305 H6            1 RES     
   27331 H6         893.6853  -709.6352  -640.5228 H6            1 RES     
   27332 H6         893.8373  -710.1721  -637.4490 H6            1 RES     
   27333 H6         893.8390  -711.3431  -638.7591 H6            1 RES     
   27334 H6         891.6446  -710.7439  -639.5417 H6            1 RES     
   27335 H6         891.7436  -711.4882  -637.9334 H6            1 RES     
   27336 H6         891.4474  -709.3798  -636.8116 H6            1 RES     
   27337 H6         891.2964  -708.4810  -638.3765 H6            1 RES     
   27338 H6         889.3616  -709.8621  -639.0519 H6            1 RES     
   27339 H6         889.5000  -710.9018  -637.5933 H6            1 RES     
   27340 H6         887.6494  -709.2755  -637.4459 H6            1 RES     
   27341 H6         888.8106  -707.8990  -637.5395 H6            1 RES     
   27342 H6         889.8672  -708.7194  -635.3741 H6            1 RES     
   27343 H6         888.1036  -708.4388  -635.1835 H6            1 RES     
   27344 H6         888.7233  -710.1202  -635.3692 H6            1 RES     
   27345 C0         895.8984  -714.1287  -641.8666 C0            1 RES     
   27346 C0         895.5238  -713.9746  -643.4100 C0            1 RES     
   27347 C0         895.1140  -715.4009  -643.9101 C0            1 RES     
   27348 C0         894.9658  -715.5544  -645.4374 C0            1 RES     
   27349 C0         894.5392  -716.9646  -645.8819 C0            1 RES     
   27350 C0         895.4970  -718.1057  -645.4955 C0            1 RES     
   27351 C0         896.9574  -717.9106  -645.9358 C0            1 RES     
   27352 C0         897.1181  -717.7129  -647.4534 C0            1 RES     
   27353 C0         898.5827  -717.5142  -647.8764 C0            1 RES     
   27354 C0         899.4445  -718.7709  -647.6590 C0            1 RES     
   27355 C0         900.8762  -718.6170  -648.1955 C0            1 RES     
   27356 C0         901.6911  -717.5625  -647.4466 C0            1 RES     
   27357 C0         894.5710  -712.8597  -644.0151 C0            1 RES     
   27358 C0         893.0453  -712.8299  -643.7163 C0            1 RES     
   27359 C0         892.6601  -711.6984  -642.7463 C0            1 RES     
   27360 C0         891.1984  -711.6200  -642.3374 C0            1 RES     
   27361 C0         890.2139  -711.1213  -643.3858 C0            1 RES     
   27362 C0         888.8483  -710.9666  -642.6857 C0            1 RES     
   27363 C0         887.7611  -710.3252  -643.5499 C0            1 RES     
   27364 C0         888.0541  -708.8557  -643.8560 C0            1 RES     
   27365 H6         895.3091  -714.9734  -641.4398 H6            1 RES     
   27366 H6         896.9169  -714.5786  -641.8775 H6            1 RES     
   27367 H6         896.4964  -713.7222  -643.8921 H6            1 RES     
   27368 H6         894.1543  -715.6917  -643.4309 H6            1 RES     
   27369 H6         895.8948  -716.1159  -643.5726 H6            1 RES     
   27370 H6         895.9191  -715.2686  -645.9293 H6            1 RES     
   27371 H6         894.1633  -714.8914  -645.8147 H6            1 RES     
   27372 H6         894.4239  -716.9500  -646.9868 H6            1 RES     
   27373 H6         893.5370  -717.1942  -645.4577 H6            1 RES     
   27374 H6         895.1038  -719.0455  -645.9412 H6            1 RES     
   27375 H6         895.4843  -718.2371  -644.3924 H6            1 RES     
   27376 H6         897.3919  -717.0367  -645.4051 H6            1 RES     
   27377 H6         897.5114  -718.8145  -645.6098 H6            1 RES     
   27378 H6         896.5708  -716.7957  -647.7559 H6            1 RES     
   27379 H6         896.6821  -718.5752  -648.0027 H6            1 RES     
   27380 H6         898.5895  -717.2731  -648.9617 H6            1 RES     
   27381 H6         899.0004  -716.6456  -647.3244 H6            1 RES     
   27382 H6         899.4963  -719.0370  -646.5831 H6            1 RES     
   27383 H6         898.9690  -719.6143  -648.2057 H6            1 RES     
   27384 H6         900.8479  -718.3678  -649.2785 H6            1 RES     
   27385 H6         901.3933  -719.5938  -648.0789 H6            1 RES     
   27386 H6         901.2531  -716.5515  -647.5698 H6            1 RES     
   27387 H6         901.7428  -717.8135  -646.3657 H6            1 RES     
   27388 H6         902.7235  -717.5396  -647.8547 H6            1 RES     
   27389 H6         894.6509  -712.9893  -645.1100 H6            1 RES     
   27390 H6         895.0051  -711.8432  -643.9697 H6            1 RES     
   27391 H6         892.5205  -712.5711  -644.6623 H6            1 RES     
   27392 H6         892.6836  -713.8286  -643.3982 H6            1 RES     
   27393 H6         892.9934  -710.7154  -643.1498 H6            1 RES     
   27394 H6         893.1522  -711.8511  -641.7922 H6            1 RES     
   27395 H6         890.8729  -712.5928  -641.9089 H6            1 RES     
   27396 H6         891.1680  -710.8495  -641.5495 H6            1 RES     
   27397 H6         890.5783  -710.1384  -643.7523 H6            1 RES     
   27398 H6         890.1441  -711.8274  -644.2393 H6            1 RES     
   27399 H6         888.5065  -711.9770  -642.3706 H6            1 RES     
   27400 H6         888.9537  -710.3457  -641.7662 H6            1 RES     
   27401 H6         886.8131  -710.3620  -642.9695 H6            1 RES     
   27402 H6         887.6270  -710.9030  -644.4858 H6            1 RES     
   27403 H6         888.9693  -708.7443  -644.4706 H6            1 RES     
   27404 H6         887.2026  -708.4222  -644.4196 H6            1 RES     
   27405 H6         888.1779  -708.2827  -642.9108 H6            1 RES     
   27406 C0         908.5269  -713.2131  -637.5296 C0            1 RES     
   27407 C1         907.0408  -713.4028  -637.1539 C1            1 RES     
   27408 C1         906.8838  -714.1141  -636.0074 C1            1 RES     
   27409 S2         905.2834  -714.4169  -635.6208 S2            1 RES     
   27410 C1         904.7269  -713.6300  -637.0215 C1            1 RES     
   27411 C1         905.8049  -713.1459  -637.7706 C1            1 RES     
   27412 C1         908.1569  -714.4913  -635.5280 C1            1 RES     
   27413 C1         909.1077  -714.0747  -636.4073 C1            1 RES     
   27414 C1         910.3752  -714.5358  -636.0725 C1            1 RES     
   27415 C1         910.3314  -715.2843  -634.8842 C1            1 RES     
   27416 S2         908.7544  -715.3922  -634.2639 S2            1 RES     
   27417 H3         905.6612  -712.6848  -638.7293 H3            1 RES     
   27418 H3         911.2706  -714.3472  -636.6527 H3            1 RES     
   27419 N4         912.9828  -716.3579  -632.4618 N4            1 RES     
   27420 C1         911.9693  -715.6410  -633.0302 C1            1 RES     
   27421 C1         911.4443  -716.0091  -634.2811 C1            1 RES     
   27422 C1         911.9725  -717.1377  -634.9105 C1            1 RES     
   27423 N4         911.5183  -717.6333  -636.0901 N4            1 RES     
   27424 S2         912.4595  -718.9769  -636.2915 S2            1 RES     
   27425 N4         913.4355  -718.9796  -634.9551 N4            1 RES     
   27426 C1         913.0111  -717.8766  -634.2903 C1            1 RES     
   27427 C1         913.5169  -717.4582  -633.0624 C1            1 RES     
   27428 H5         911.5744  -714.7726  -632.5099 H5            1 RES     
   27429 C0         909.1717  -711.7850  -637.4436 C0            1 RES     
   27430 C0         909.5550  -710.9135  -636.1885 C0            1 RES     
   27431 C0         910.0371  -709.5406  -636.7759 C0            1 RES     
   27432 C0         910.5499  -708.5000  -635.7726 C0            1 RES     
   27433 C0         910.9485  -707.1715  -636.4576 C0            1 RES     
   27434 C0         912.1084  -707.2602  -637.4738 C0            1 RES     
   27435 C0         913.4066  -707.8761  -636.9230 C0            1 RES     
   27436 C0         913.9560  -707.1275  -635.6956 C0            1 RES     
   27437 C0         915.2200  -707.7770  -635.1143 C0            1 RES     
   27438 C0         916.4343  -707.6863  -636.0539 C0            1 RES     
   27439 C0         917.7203  -708.2361  -635.4166 C0            1 RES     
   27440 C0         917.6622  -709.7396  -635.1436 C0            1 RES     
   27441 C0         908.5189  -710.7258  -635.0324 C0            1 RES     
   27442 C0         907.1896  -709.9610  -635.3167 C0            1 RES     
   27443 C0         906.0093  -710.8910  -635.0199 C0            1 RES     
   27444 C0         904.6297  -710.4826  -635.5287 C0            1 RES     
   27445 C0         903.8832  -709.4454  -634.7026 C0            1 RES     
   27446 C0         902.5074  -709.2195  -635.3639 C0            1 RES     
   27447 C0         901.5531  -708.3437  -634.5488 C0            1 RES     
   27448 C0         901.0917  -709.0303  -633.2616 C0            1 RES     
   27449 H6         908.5551  -711.1451  -638.0216 H6            1 RES     
   27450 H6         910.1400  -711.8901  -637.9831 H6            1 RES     
   27451 H6         910.4238  -711.4154  -635.7069 H6            1 RES     
   27452 H6         909.2019  -709.0691  -637.3385 H6            1 RES     
   27453 H6         910.8530  -709.7503  -637.5004 H6            1 RES     
   27454 H6         911.4017  -708.9140  -635.1958 H6            1 RES     
   27455 H6         909.7375  -708.2474  -635.0616 H6            1 RES     
   27456 H6         911.2208  -706.4434  -635.6657 H6            1 RES     
   27457 H6         910.0631  -706.7491  -636.9824 H6            1 RES     
   27458 H6         912.3235  -706.2322  -637.8418 H6            1 RES     
   27459 H6         911.7892  -707.8564  -638.3552 H6            1 RES     
   27460 H6         913.2233  -708.9382  -636.6559 H6            1 RES     
   27461 H6         914.1541  -707.8576  -637.7432 H6            1 RES     
   27462 H6         913.1954  -707.1557  -634.8890 H6            1 RES     
   27463 H6         914.1563  -706.0637  -635.9503 H6            1 RES     
   27464 H6         915.4701  -707.2403  -634.1732 H6            1 RES     
   27465 H6         914.9905  -708.8335  -634.8619 H6            1 RES     
   27466 H6         916.2447  -708.2302  -637.0024 H6            1 RES     
   27467 H6         916.6069  -706.6142  -636.2926 H6            1 RES     
   27468 H6         917.9342  -707.6930  -634.4702 H6            1 RES     
   27469 H6         918.5610  -708.0495  -636.1191 H6            1 RES     
   27470 H6         916.8734  -709.9864  -634.4048 H6            1 RES     
   27471 H6         917.4697  -710.2929  -636.0873 H6            1 RES     
   27472 H6         918.6351  -710.0752  -634.7273 H6            1 RES     
   27473 H6         909.0298  -710.1829  -634.2087 H6            1 RES     
   27474 H6         908.3221  -711.7204  -634.5778 H6            1 RES     
   27475 H6         907.1005  -709.0664  -634.6603 H6            1 RES     
   27476 H6         907.1644  -709.6196  -636.3714 H6            1 RES     
   27477 H6         905.9750  -711.2019  -633.9545 H6            1 RES     
   27478 H6         906.2312  -711.7610  -635.6005 H6            1 RES     
   27479 H6         904.7121  -710.1689  -636.5722 H6            1 RES     
   27480 H6         904.0045  -711.4043  -635.5121 H6            1 RES     
   27481 H6         903.7670  -709.8623  -633.6797 H6            1 RES     
   27482 H6         904.4454  -708.4894  -634.6466 H6            1 RES     
   27483 H6         902.6771  -708.7401  -636.3547 H6            1 RES     
   27484 H6         901.9980  -710.1933  -635.5456 H6            1 RES     
   27485 H6         900.6485  -708.1615  -635.1696 H6            1 RES     
   27486 H6         902.0268  -707.3654  -634.3221 H6            1 RES     
   27487 H6         901.9386  -709.2098  -632.5704 H6            1 RES     
   27488 H6         900.3516  -708.3872  -632.7436 H6            1 RES     
   27489 H6         900.6052  -710.0026  -633.5000 H6            1 RES     
   27490 C0         908.6718  -713.8474  -638.9691 C0            1 RES     
   27491 C0         908.9771  -713.0434  -640.3132 C0            1 RES     
   27492 C0         908.4915  -713.9525  -641.4923 C0            1 RES     
   27493 C0         908.9245  -713.5027  -642.9024 C0            1 RES     
   27494 C0         908.4057  -714.4109  -644.0312 C0            1 RES     
   27495 C0         908.8563  -715.8812  -643.9668 C0            1 RES     
   27496 C0         910.3760  -716.0955  -643.8707 C0            1 RES     
   27497 C0         911.1588  -715.4588  -645.0326 C0            1 RES     
   27498 C0         912.6762  -715.6775  -644.9190 C0            1 RES     
   27499 C0         913.0818  -717.1539  -645.0761 C0            1 RES     
   27500 C0         914.6045  -717.3601  -645.0883 C0            1 RES     
   27501 C0         915.2718  -717.0066  -643.7590 C0            1 RES     
   27502 C0         908.6110  -711.5220  -640.5746 C0            1 RES     
   27503 C0         907.1383  -711.0406  -640.7066 C0            1 RES     
   27504 C0         906.6645  -710.2575  -639.4690 C0            1 RES     
   27505 C0         905.2166  -709.7956  -639.4685 C0            1 RES     
   27506 C0         904.8596  -708.6417  -640.3948 C0            1 RES     
   27507 C0         903.4000  -708.2498  -640.0863 C0            1 RES     
   27508 C0         902.9106  -706.9986  -640.8180 C0            1 RES     
   27509 C0         903.6179  -705.7307  -640.3371 C0            1 RES     
   27510 H6         907.7911  -714.5088  -639.1422 H6            1 RES     
   27511 H6         909.4857  -714.6055  -638.9148 H6            1 RES     
   27512 H6         910.0905  -713.0150  -640.3548 H6            1 RES     
   27513 H6         907.3823  -714.0178  -641.4672 H6            1 RES     
   27514 H6         908.8978  -714.9729  -641.3232 H6            1 RES     
   27515 H6         910.0319  -713.4349  -642.9423 H6            1 RES     
   27516 H6         908.5030  -712.5056  -643.1346 H6            1 RES     
   27517 H6         908.7395  -713.9741  -644.9966 H6            1 RES     
   27518 H6         907.2937  -714.3888  -644.0365 H6            1 RES     
   27519 H6         908.4719  -716.3949  -644.8751 H6            1 RES     
   27520 H6         908.3830  -716.3714  -643.0894 H6            1 RES     
   27521 H6         910.7493  -715.6831  -642.9090 H6            1 RES     
   27522 H6         910.5424  -717.1919  -643.8564 H6            1 RES     
   27523 H6         910.9921  -714.3614  -645.0191 H6            1 RES     
   27524 H6         910.7940  -715.8540  -646.0053 H6            1 RES     
   27525 H6         913.1615  -715.0964  -645.7332 H6            1 RES     
   27526 H6         913.0250  -715.2710  -643.9460 H6            1 RES     
   27527 H6         912.6469  -717.7748  -644.2659 H6            1 RES     
   27528 H6         912.6850  -717.5193  -646.0485 H6            1 RES     
   27529 H6         915.0595  -716.7599  -645.9060 H6            1 RES     
   27530 H6         914.8040  -718.4336  -645.2951 H6            1 RES     
   27531 H6         915.1532  -715.9302  -643.5215 H6            1 RES     
   27532 H6         914.8382  -717.6160  -642.9377 H6            1 RES     
   27533 H6         916.3586  -717.2239  -643.8256 H6            1 RES     
   27534 H6         909.0832  -711.2847  -641.5455 H6            1 RES     
   27535 H6         909.2059  -710.8187  -639.9621 H6            1 RES     
   27536 H6         907.0984  -710.2978  -641.5335 H6            1 RES     
   27537 H6         906.4694  -711.8809  -640.9822 H6            1 RES     
   27538 H6         907.3382  -709.3909  -639.2808 H6            1 RES     
   27539 H6         906.6957  -710.8995  -638.5958 H6            1 RES     
   27540 H6         904.5423  -710.6649  -639.6288 H6            1 RES     
   27541 H6         905.0510  -709.3913  -638.4563 H6            1 RES     
   27542 H6         905.5465  -707.7993  -640.1669 H6            1 RES     
   27543 H6         904.9757  -708.9309  -641.4601 H6            1 RES     
   27544 H6         902.7473  -709.1064  -640.3645 H6            1 RES     
   27545 H6         903.2709  -708.0700  -638.9941 H6            1 RES     
   27546 H6         901.8285  -706.8838  -640.5886 H6            1 RES     
   27547 H6         903.0301  -707.1250  -641.9123 H6            1 RES     
   27548 H6         904.7008  -705.7573  -640.5706 H6            1 RES     
   27549 H6         903.1749  -704.8494  -640.8448 H6            1 RES     
   27550 H6         903.4845  -705.6079  -639.2399 H6            1 RES     
   27551 C0         918.4467  -719.1826  -631.5452 C0            1 RES     
   27552 C1         916.9306  -718.9319  -631.7007 C1            1 RES     
   27553 C1         916.1830  -719.8853  -631.0864 C1            1 RES     
   27554 S2         914.5355  -719.6942  -631.3138 S2            1 RES     
   27555 C1         914.7626  -718.3262  -632.2977 C1            1 RES     
   27556 C1         916.1262  -718.0440  -632.4344 C1            1 RES     
   27557 C1         917.0478  -720.8433  -630.5145 C1            1 RES     
   27558 C1         918.3340  -720.5277  -630.8260 C1            1 RES     
   27559 C1         919.2320  -721.5062  -630.4168 C1            1 RES     
   27560 C1         918.5608  -722.5476  -629.7541 C1            1 RES     
   27561 S2         916.8856  -722.2775  -629.6879 S2            1 RES     
   27562 H3         916.4762  -717.2615  -633.0806 H3            1 RES     
   27563 H3         920.3007  -721.4707  -630.5911 H3            1 RES     
   27564 N4         919.7393  -725.2839  -627.4794 N4            1 RES     
   27565 C1         919.2164  -724.0968  -627.9055 C1            1 RES     
   27566 C1         919.1571  -723.7899  -629.2759 C1            1 RES     
   27567 C1         919.6255  -724.7408  -630.1844 C1            1 RES     
   27568 N4         919.5730  -724.5946  -631.5332 N4            1 RES     
   27569 S2         920.1946  -726.0305  -632.0658 S2            1 RES     
   27570 N4         920.5409  -726.8524  -630.6720 N4            1 RES     
   27571 C1         920.1457  -725.9740  -629.7176 C1            1 RES     
   27572 C1         920.2081  -726.2224  -628.3490 C1            1 RES     
   27573 H5         918.8522  -723.3818  -627.1728 H5            1 RES     
   27574 C0         919.3050  -718.2149  -630.6567 C0            1 RES     
   27575 C0         919.3478  -718.0364  -629.0920 C0            1 RES     
   27576 C0         920.3129  -716.8240  -628.8451 C0            1 RES     
   27577 C0         920.6075  -716.4598  -627.3847 C0            1 RES     
   27578 C0         921.5264  -715.2214  -627.2629 C0            1 RES     
   27579 C0         922.9410  -715.3716  -627.8648 C0            1 RES     
   27580 C0         923.7474  -716.5697  -627.3335 C0            1 RES     
   27581 C0         923.9221  -716.5487  -625.8045 C0            1 RES     
   27582 C0         924.6785  -717.7738  -625.2712 C0            1 RES     
   27583 C0         926.1513  -717.8155  -625.7125 C0            1 RES     
   27584 C0         926.9275  -718.9819  -625.0806 C0            1 RES     
   27585 C0         926.4354  -720.3538  -625.5434 C0            1 RES     
   27586 C0         918.0108  -717.8945  -628.2936 C0            1 RES     
   27587 C0         917.1051  -716.6485  -628.5386 C0            1 RES     
   27588 C0         915.7289  -717.1220  -629.0161 C0            1 RES     
   27589 C0         914.7874  -716.0880  -629.6269 C0            1 RES     
   27590 C0         914.0267  -715.2041  -628.6494 C0            1 RES     
   27591 C0         913.1080  -714.2762  -629.4718 C0            1 RES     
   27592 C0         912.1303  -713.4519  -628.6311 C0            1 RES     
   27593 C0         911.0611  -714.3211  -627.9657 C0            1 RES     
   27594 H6         919.1231  -717.2364  -631.0215 H6            1 RES     
   27595 H6         920.3579  -718.4739  -630.9100 H6            1 RES     
   27596 H6         919.8232  -718.9548  -628.6807 H6            1 RES     
   27597 H6         919.8924  -715.9162  -629.3305 H6            1 RES     
   27598 H6         921.2790  -717.0536  -629.3434 H6            1 RES     
   27599 H6         921.0499  -717.3289  -626.8568 H6            1 RES     
   27600 H6         919.6593  -716.1898  -626.8774 H6            1 RES     
   27601 H6         921.6202  -714.9660  -626.1871 H6            1 RES     
   27602 H6         921.0355  -714.3507  -627.7513 H6            1 RES     
   27603 H6         923.5052  -714.4351  -627.6570 H6            1 RES     
   27604 H6         922.8698  -715.4649  -628.9696 H6            1 RES     
   27605 H6         923.2436  -717.5124  -627.6344 H6            1 RES     
   27606 H6         924.7405  -716.5440  -627.8280 H6            1 RES     
   27607 H6         922.9203  -716.5732  -625.3293 H6            1 RES     
   27608 H6         924.4365  -715.6151  -625.4877 H6            1 RES     
   27609 H6         924.6514  -717.7272  -624.1607 H6            1 RES     
   27610 H6         924.1405  -718.6896  -625.5943 H6            1 RES     
   27611 H6         926.2337  -717.8878  -626.8168 H6            1 RES     
   27612 H6         926.6366  -716.8700  -625.3857 H6            1 RES     
   27613 H6         926.8674  -718.9183  -623.9721 H6            1 RES     
   27614 H6         927.9950  -718.8858  -625.3744 H6            1 RES     
   27615 H6         925.3866  -720.5334  -625.2323 H6            1 RES     
   27616 H6         926.5112  -720.4350  -626.6486 H6            1 RES     
   27617 H6         927.0662  -721.1440  -625.0851 H6            1 RES     
   27618 H6         918.2640  -717.8975  -627.2118 H6            1 RES     
   27619 H6         917.4364  -718.8387  -628.4076 H6            1 RES     
   27620 H6         916.9662  -716.0700  -627.5978 H6            1 RES     
   27621 H6         917.5721  -715.9797  -629.2898 H6            1 RES     
   27622 H6         915.2114  -717.7464  -628.2576 H6            1 RES     
   27623 H6         915.9620  -717.7542  -629.8463 H6            1 RES     
   27624 H6         915.3399  -715.4863  -630.3527 H6            1 RES     
   27625 H6         914.0186  -716.6608  -630.1937 H6            1 RES     
   27626 H6         913.4292  -715.8753  -627.9966 H6            1 RES     
   27627 H6         914.7184  -714.6035  -628.0216 H6            1 RES     
   27628 H6         913.7545  -713.5817  -630.0548 H6            1 RES     
   27629 H6         912.5088  -714.8680  -630.2008 H6            1 RES     
   27630 H6         911.6067  -712.7484  -629.3152 H6            1 RES     
   27631 H6         912.6809  -712.8587  -627.8710 H6            1 RES     
   27632 H6         911.5062  -715.0254  -627.2355 H6            1 RES     
   27633 H6         910.3397  -713.6735  -627.4274 H6            1 RES     
   27634 H6         910.5050  -714.9003  -628.7364 H6            1 RES     
   27635 C0         919.0004  -719.2859  -633.0211 C0            1 RES     
   27636 C0         919.9784  -718.2385  -633.7229 C0            1 RES     
   27637 C0         919.8062  -718.4382  -635.2666 C0            1 RES     
   27638 C0         920.8456  -717.7208  -636.1514 C0            1 RES     
   27639 C0         920.6242  -717.9249  -637.6605 C0            1 RES     
   27640 C0         920.6754  -719.3824  -638.1526 C0            1 RES     
   27641 C0         921.9469  -720.1574  -637.7690 C0            1 RES     
   27642 C0         923.2427  -719.4925  -638.2659 C0            1 RES     
   27643 C0         924.5043  -720.2766  -637.8699 C0            1 RES     
   27644 C0         924.6010  -721.6463  -638.5654 C0            1 RES     
   27645 C0         925.9194  -722.3780  -638.2695 C0            1 RES     
   27646 C0         926.0719  -722.7768  -636.8015 C0            1 RES     
   27647 C0         920.0912  -716.6998  -633.3535 C0            1 RES     
   27648 C0         918.9350  -715.6987  -633.6346 C0            1 RES     
   27649 C0         918.1999  -715.2766  -632.3497 C0            1 RES     
   27650 C0         917.0095  -714.3473  -632.5202 C0            1 RES     
   27651 C0         917.3098  -712.8993  -632.8813 C0            1 RES     
   27652 C0         915.9727  -712.1328  -632.8240 C0            1 RES     
   27653 C0         916.1001  -710.6197  -633.0099 C0            1 RES     
   27654 C0         916.8237  -709.9497  -631.8409 C0            1 RES     
   27655 H6         918.1355  -719.4748  -633.6989 H6            1 RES     
   27656 H6         919.5377  -720.2577  -633.1043 H6            1 RES     
   27657 H6         920.9950  -718.6075  -633.4535 H6            1 RES     
   27658 H6         918.7916  -718.0969  -635.5657 H6            1 RES     
   27659 H6         919.8764  -719.5270  -635.4775 H6            1 RES     
   27660 H6         921.8649  -718.0541  -635.8642 H6            1 RES     
   27661 H6         920.7814  -716.6247  -636.0088 H6            1 RES     
   27662 H6         921.3978  -717.3361  -638.1982 H6            1 RES     
   27663 H6         919.6384  -717.4966  -637.9468 H6            1 RES     
   27664 H6         920.5749  -719.3713  -639.2600 H6            1 RES     
   27665 H6         919.8000  -719.9359  -637.7507 H6            1 RES     
   27666 H6         921.9942  -720.2706  -636.6647 H6            1 RES     
   27667 H6         921.8469  -721.1705  -638.2092 H6            1 RES     
   27668 H6         923.3317  -718.4882  -637.8016 H6            1 RES     
   27669 H6         923.2111  -719.3640  -639.3695 H6            1 RES     
   27670 H6         925.3858  -719.6710  -638.1737 H6            1 RES     
   27671 H6         924.5240  -720.3897  -636.7652 H6            1 RES     
   27672 H6         923.7573  -722.3035  -638.2698 H6            1 RES     
   27673 H6         924.5473  -721.4804  -639.6635 H6            1 RES     
   27674 H6         926.7794  -721.7436  -638.5756 H6            1 RES     
   27675 H6         925.9408  -723.3070  -638.8791 H6            1 RES     
   27676 H6         926.1112  -721.8856  -636.1433 H6            1 RES     
   27677 H6         925.2275  -723.4284  -636.4910 H6            1 RES     
   27678 H6         927.0201  -723.3396  -636.6715 H6            1 RES     
   27679 H6         920.9463  -716.3320  -633.9498 H6            1 RES     
   27680 H6         920.5378  -716.5219  -632.3572 H6            1 RES     
   27681 H6         919.3884  -714.7564  -634.0138 H6            1 RES     
   27682 H6         918.2598  -716.0842  -634.4251 H6            1 RES     
   27683 H6         918.9195  -714.8398  -631.6205 H6            1 RES     
   27684 H6         917.7429  -716.1445  -631.8877 H6            1 RES     
   27685 H6         916.2778  -714.7957  -633.2269 H6            1 RES     
   27686 H6         916.5540  -714.2873  -631.5180 H6            1 RES     
   27687 H6         918.0203  -712.5021  -632.1258 H6            1 RES     
   27688 H6         917.7674  -712.8234  -633.8897 H6            1 RES     
   27689 H6         915.3094  -712.5374  -633.6199 H6            1 RES     
   27690 H6         915.4687  -712.3078  -631.8455 H6            1 RES     
   27691 H6         915.0694  -710.2033  -633.0464 H6            1 RES     
   27692 H6         916.6081  -710.3943  -633.9685 H6            1 RES     
   27693 H6         917.8761  -710.2887  -631.7678 H6            1 RES     
   27694 H6         916.8227  -708.8507  -631.9911 H6            1 RES     
   27695 H6         916.3013  -710.1742  -630.8851 H6            1 RES     
   27696 C0         923.6316  -730.0427  -626.5427 C0            1 RES     
   27697 C1         922.3947  -729.2169  -626.9596 C1            1 RES     
   27698 C1         921.2750  -729.9790  -627.0635 C1            1 RES     
   27699 S2         919.9358  -729.1317  -627.6030 S2            1 RES     
   27700 C1         920.8278  -727.6931  -627.7631 C1            1 RES     
   27701 C1         922.1612  -727.9015  -627.3943 C1            1 RES     
   27702 C1         921.6104  -731.3211  -626.7825 C1            1 RES     
   27703 C1         922.9508  -731.4120  -626.5678 C1            1 RES     
   27704 C1         923.3751  -732.7277  -626.4261 C1            1 RES     
   27705 C1         922.2851  -733.6106  -626.5085 C1            1 RES     
   27706 S2         920.8236  -732.7865  -626.7694 S2            1 RES     
   27707 H3         922.9006  -727.1304  -627.4992 H3            1 RES     
   27708 H3         924.4054  -733.0284  -626.2782 H3            1 RES     
   27709 N4         921.8385  -737.1926  -625.4985 N4            1 RES     
   27710 C1         921.8019  -735.8282  -625.4617 C1            1 RES     
   27711 C1         922.3546  -735.0676  -626.5065 C1            1 RES     
   27712 C1         922.9186  -735.7465  -627.5882 C1            1 RES     
   27713 N4         923.4333  -735.1346  -628.6855 N4            1 RES     
   27714 S2         923.8791  -736.4186  -629.6260 S2            1 RES     
   27715 N4         923.4593  -737.7374  -628.7189 N4            1 RES     
   27716 C1         922.9266  -737.1637  -627.6118 C1            1 RES     
   27717 C1         922.3902  -737.8744  -626.5413 C1            1 RES     
   27718 H5         921.3476  -735.3306  -624.6093 H5            1 RES     
   27719 C0         924.2636  -729.8284  -625.1224 C0            1 RES     
   27720 C0         923.7274  -730.2309  -623.6968 C0            1 RES     
   27721 C0         924.7607  -729.6225  -622.6846 C0            1 RES     
   27722 C0         924.5313  -729.9207  -621.1977 C0            1 RES     
   27723 C0         925.5783  -729.2298  -620.2926 C0            1 RES     
   27724 C0         927.0440  -729.6696  -620.5025 C0            1 RES     
   27725 C0         927.2900  -731.1837  -620.3801 C0            1 RES     
   27726 C0         926.8506  -731.7582  -619.0216 C0            1 RES     
   27727 C0         927.0453  -733.2780  -618.9228 C0            1 RES     
   27728 C0         928.5240  -733.7010  -618.9314 C0            1 RES     
   27729 C0         928.7105  -735.2115  -618.7169 C0            1 RES     
   27730 C0         928.1489  -736.0563  -619.8611 C0            1 RES     
   27731 C0         922.2520  -729.8945  -623.3028 C0            1 RES     
   27732 C0         921.8157  -728.4017  -623.1855 C0            1 RES     
   27733 C0         920.6695  -728.1414  -624.1678 C0            1 RES     
   27734 C0         920.2978  -726.6920  -624.4676 C0            1 RES     
   27735 C0         919.4310  -725.9878  -623.4341 C0            1 RES     
   27736 C0         919.1391  -724.5653  -623.9563 C0            1 RES     
   27737 C0         918.1191  -723.7858  -623.1233 C0            1 RES     
   27738 C0         916.7109  -724.3749  -623.2299 C0            1 RES     
   27739 H6         924.4612  -728.7903  -625.0384 H6            1 RES     
   27740 H6         925.2455  -730.3503  -625.1792 H6            1 RES     
   27741 H6         923.7870  -731.3406  -623.6369 H6            1 RES     
   27742 H6         924.7769  -728.5164  -622.7979 H6            1 RES     
   27743 H6         925.7679  -730.0024  -622.9597 H6            1 RES     
   27744 H6         924.5266  -731.0162  -621.0250 H6            1 RES     
   27745 H6         923.5456  -729.5155  -620.8920 H6            1 RES     
   27746 H6         925.2965  -729.4154  -619.2355 H6            1 RES     
   27747 H6         925.5246  -728.1288  -620.4438 H6            1 RES     
   27748 H6         927.6736  -729.1392  -619.7537 H6            1 RES     
   27749 H6         927.3933  -729.3421  -621.5050 H6            1 RES     
   27750 H6         926.7494  -731.7095  -621.1952 H6            1 RES     
   27751 H6         928.3763  -731.3544  -620.5294 H6            1 RES     
   27752 H6         925.7644  -731.5767  -618.8904 H6            1 RES     
   27753 H6         927.3924  -731.2497  -618.1942 H6            1 RES     
   27754 H6         926.5956  -733.6118  -617.9622 H6            1 RES     
   27755 H6         926.4888  -733.7604  -619.7537 H6            1 RES     
   27756 H6         929.0148  -733.4119  -619.8837 H6            1 RES     
   27757 H6         929.0384  -733.1751  -618.0978 H6            1 RES     
   27758 H6         928.2360  -735.5178  -617.7591 H6            1 RES     
   27759 H6         929.8001  -735.4180  -618.6438 H6            1 RES     
   27760 H6         927.0507  -735.9348  -619.9523 H6            1 RES     
   27761 H6         928.6322  -735.7721  -620.8199 H6            1 RES     
   27762 H6         928.3571  -737.1285  -619.6625 H6            1 RES     
   27763 H6         922.0529  -730.3639  -622.3157 H6            1 RES     
   27764 H6         921.5748  -730.4603  -623.9778 H6            1 RES     
   27765 H6         921.4507  -728.1763  -622.1583 H6            1 RES     
   27766 H6         922.6755  -727.7353  -623.4007 H6            1 RES     
   27767 H6         919.7716  -728.7535  -623.9395 H6            1 RES     
   27768 H6         921.0634  -728.4859  -625.1003 H6            1 RES     
   27769 H6         921.2092  -726.1237  -624.6691 H6            1 RES     
   27770 H6         919.7070  -726.7092  -625.4116 H6            1 RES     
   27771 H6         918.4928  -726.5744  -623.3381 H6            1 RES     
   27772 H6         919.9352  -725.9395  -622.4459 H6            1 RES     
   27773 H6         920.0989  -724.0006  -623.9694 H6            1 RES     
   27774 H6         918.7591  -724.6050  -625.0026 H6            1 RES     
   27775 H6         918.0759  -722.7496  -623.5255 H6            1 RES     
   27776 H6         918.4438  -723.7378  -622.0626 H6            1 RES     
   27777 H6         916.6657  -725.3989  -622.8094 H6            1 RES     
   27778 H6         915.9991  -723.7373  -622.6673 H6            1 RES     
   27779 H6         916.3885  -724.4050  -624.2947 H6            1 RES     
   27780 C0         924.6822  -729.8245  -627.7022 C0            1 RES     
   27781 C0         926.0627  -729.0353  -627.5699 C0            1 RES     
   27782 C0         926.4704  -728.6110  -629.0211 C0            1 RES     
   27783 C0         927.9044  -728.0661  -629.1780 C0            1 RES     
   27784 C0         928.2537  -727.6396  -630.6148 C0            1 RES     
   27785 C0         928.1696  -728.7472  -631.6802 C0            1 RES     
   27786 C0         928.9824  -730.0152  -631.3702 C0            1 RES     
   27787 C0         930.4815  -729.7437  -631.1530 C0            1 RES     
   27788 C0         931.2787  -731.0202  -630.8393 C0            1 RES     
   27789 C0         931.3344  -731.9984  -632.0264 C0            1 RES     
   27790 C0         932.2332  -733.2158  -631.7593 C0            1 RES     
   27791 C0         931.7050  -734.1237  -630.6485 C0            1 RES     
   27792 C0         926.3593  -727.8752  -626.5292 C0            1 RES     
   27793 C0         925.6592  -726.4896  -626.6193 C0            1 RES     
   27794 C0         924.5924  -726.2999  -625.5260 C0            1 RES     
   27795 C0         923.8025  -725.0021  -625.5632 C0            1 RES     
   27796 C0         924.5331  -723.7364  -625.1371 C0            1 RES     
   27797 C0         923.4867  -722.6042  -625.0922 C0            1 RES     
   27798 C0         924.0086  -721.2795  -624.5328 C0            1 RES     
   27799 C0         924.3444  -721.3701  -623.0434 C0            1 RES     
   27800 H6         924.1342  -729.4364  -628.5922 H6            1 RES     
   27801 H6         924.9791  -730.8321  -628.0717 H6            1 RES     
   27802 H6         926.7827  -729.8197  -627.2404 H6            1 RES     
   27803 H6         925.7576  -727.8411  -629.3879 H6            1 RES     
   27804 H6         926.3746  -729.5043  -629.6751 H6            1 RES     
   27805 H6         928.6278  -728.8268  -628.8167 H6            1 RES     
   27806 H6         928.0340  -727.1450  -628.5774 H6            1 RES     
   27807 H6         929.2857  -727.2284  -630.6037 H6            1 RES     
   27808 H6         927.5809  -726.8095  -630.9236 H6            1 RES     
   27809 H6         928.5168  -728.3179  -632.6454 H6            1 RES     
   27810 H6         927.1078  -729.0436  -631.8177 H6            1 RES     
   27811 H6         928.5663  -730.5120  -630.4678 H6            1 RES     
   27812 H6         928.8414  -730.7015  -632.2300 H6            1 RES     
   27813 H6         930.6013  -729.0693  -630.2796 H6            1 RES     
   27814 H6         930.9148  -729.2395  -632.0438 H6            1 RES     
   27815 H6         932.3190  -730.7149  -630.5929 H6            1 RES     
   27816 H6         930.8377  -731.5071  -629.9437 H6            1 RES     
   27817 H6         930.3196  -732.3591  -632.2930 H6            1 RES     
   27818 H6         931.7541  -731.4556  -632.9014 H6            1 RES     
   27819 H6         933.2616  -732.8769  -631.5076 H6            1 RES     
   27820 H6         932.2856  -733.8153  -632.6936 H6            1 RES     
   27821 H6         931.6793  -733.5958  -629.6739 H6            1 RES     
   27822 H6         930.6849  -734.4845  -630.9001 H6            1 RES     
   27823 H6         932.3757  -735.0022  -630.5435 H6            1 RES     
   27824 H6         927.4382  -727.6646  -626.6468 H6            1 RES     
   27825 H6         926.4065  -728.2296  -625.4824 H6            1 RES     
   27826 H6         926.4215  -725.7106  -626.3973 H6            1 RES     
   27827 H6         925.2813  -726.3019  -627.6446 H6            1 RES     
   27828 H6         925.0454  -726.4384  -624.5181 H6            1 RES     
   27829 H6         923.8108  -727.0419  -625.6448 H6            1 RES     
   27830 H6         923.3272  -724.8770  -626.5604 H6            1 RES     
   27831 H6         923.0159  -725.1299  -624.8013 H6            1 RES     
   27832 H6         924.9588  -723.9148  -624.1271 H6            1 RES     
   27833 H6         925.3540  -723.4899  -625.8422 H6            1 RES     
   27834 H6         923.1172  -722.4355  -626.1277 H6            1 RES     
   27835 H6         922.6141  -722.9090  -624.4697 H6            1 RES     
   27836 H6         923.1951  -720.5296  -624.6459 H6            1 RES     
   27837 H6         924.8882  -720.9395  -625.1145 H6            1 RES     
   27838 H6         925.1801  -722.0737  -622.8584 H6            1 RES     
   27839 H6         924.6459  -720.3683  -622.6745 H6            1 RES     
   27840 H6         923.4532  -721.7030  -622.4673 H6            1 RES     
   27841 C0         923.8914  -743.0534  -625.8319 C0            1 RES     
   27842 C1         923.1337  -741.7427  -626.1381 C1            1 RES     
   27843 C1         922.0060  -741.9549  -626.8651 C1            1 RES     
   27844 S2         921.2099  -740.5458  -627.2930 S2            1 RES     
   27845 C1         922.3877  -739.5744  -626.5447 C1            1 RES     
   27846 C1         923.3872  -740.3706  -625.9747 C1            1 RES     
   27847 C1         921.8979  -743.3343  -627.1449 C1            1 RES     
   27848 C1         922.9900  -743.9781  -626.6514 C1            1 RES     
   27849 C1         923.0217  -745.3192  -627.0145 C1            1 RES     
   27850 C1         921.8854  -745.6540  -627.7701 C1            1 RES     
   27851 S2         920.8656  -744.3164  -628.0031 S2            1 RES     
   27852 H3         924.2593  -739.9391  -625.5213 H3            1 RES     
   27853 H3         923.8169  -746.0075  -626.7541 H3            1 RES     
   27854 N4         920.2968  -748.9339  -628.6469 N4            1 RES     
   27855 C1         920.5519  -747.7546  -628.0079 C1            1 RES     
   27856 C1         921.6239  -746.9388  -628.4094 C1            1 RES     
   27857 C1         922.4013  -747.3578  -629.4905 C1            1 RES     
   27858 N4         923.4270  -746.6385  -630.0139 N4            1 RES     
   27859 S2         923.9095  -747.5858  -631.2795 S2            1 RES     
   27860 N4         922.8866  -748.8848  -631.2132 N4            1 RES     
   27861 C1         922.1037  -748.5769  -630.1497 C1            1 RES     
   27862 C1         921.0474  -749.3645  -629.6995 C1            1 RES     
   27863 H5         919.9222  -747.4530  -627.1754 H5            1 RES     
   27864 C0         923.9457  -743.5909  -624.3585 C0            1 RES     
   27865 C0         922.8185  -744.2350  -623.4661 C0            1 RES     
   27866 C0         923.4786  -744.4379  -622.0571 C0            1 RES     
   27867 C0         922.6243  -745.1257  -620.9849 C0            1 RES     
   27868 C0         923.3569  -745.2253  -619.6261 C0            1 RES     
   27869 C0         924.6503  -746.0697  -619.6195 C0            1 RES     
   27870 C0         924.4864  -747.5101  -620.1356 C0            1 RES     
   27871 C0         923.4339  -748.3151  -619.3528 C0            1 RES     
   27872 C0         923.2321  -749.7334  -619.9052 C0            1 RES     
   27873 C0         924.4618  -750.6376  -619.7160 C0            1 RES     
   27874 C0         924.2095  -752.0849  -620.1676 C0            1 RES     
   27875 C0         923.9699  -752.2133  -621.6724 C0            1 RES     
   27876 C0         921.4213  -743.5401  -623.3652 C0            1 RES     
   27877 C0         921.3165  -742.1312  -622.7044 C0            1 RES     
   27878 C0         920.7364  -741.1469  -623.7245 C0            1 RES     
   27879 C0         920.8433  -739.6550  -623.4218 C0            1 RES     
   27880 C0         919.8200  -739.0864  -622.4498 C0            1 RES     
   27881 C0         920.0795  -737.5701  -622.3279 C0            1 RES     
   27882 C0         919.0147  -736.8110  -621.5328 C0            1 RES     
   27883 C0         917.6689  -736.7673  -622.2596 C0            1 RES     
   27884 H6         924.3191  -742.7955  -623.7654 H6            1 RES     
   27885 H6         924.7290  -744.3817  -624.3854 H6            1 RES     
   27886 H6         922.6023  -745.2362  -623.9015 H6            1 RES     
   27887 H6         923.7826  -743.4492  -621.6490 H6            1 RES     
   27888 H6         924.4015  -745.0400  -622.1993 H6            1 RES     
   27889 H6         922.3097  -746.1300  -621.3345 H6            1 RES     
   27890 H6         921.7142  -744.5202  -620.7996 H6            1 RES     
   27891 H6         922.6494  -745.6479  -618.8831 H6            1 RES     
   27892 H6         923.6122  -744.2023  -619.2710 H6            1 RES     
   27893 H6         925.0361  -746.1010  -618.5761 H6            1 RES     
   27894 H6         925.4280  -745.5681  -620.2342 H6            1 RES     
   27895 H6         924.2072  -747.4844  -621.2101 H6            1 RES     
   27896 H6         925.4770  -748.0038  -620.0551 H6            1 RES     
   27897 H6         922.4529  -747.8057  -619.4439 H6            1 RES     
   27898 H6         923.7055  -748.3604  -618.2754 H6            1 RES     
   27899 H6         922.3799  -750.1892  -619.3555 H6            1 RES     
   27900 H6         922.9545  -749.6590  -620.9776 H6            1 RES     
   27901 H6         925.3377  -750.2384  -620.2681 H6            1 RES     
   27902 H6         924.7105  -750.6600  -618.6325 H6            1 RES     
   27903 H6         923.3423  -752.5069  -619.6142 H6            1 RES     
   27904 H6         925.1078  -752.6877  -619.9128 H6            1 RES     
   27905 H6         923.0523  -751.6745  -621.9833 H6            1 RES     
   27906 H6         924.8406  -751.8134  -622.2342 H6            1 RES     
   27907 H6         923.8404  -753.2845  -621.9336 H6            1 RES     
   27908 H6         920.7522  -744.2140  -622.7885 H6            1 RES     
   27909 H6         920.9563  -743.5474  -624.3742 H6            1 RES     
   27910 H6         920.6376  -742.1580  -621.8226 H6            1 RES     
   27911 H6         922.3162  -741.7962  -622.3606 H6            1 RES     
   27912 H6         919.7097  -741.4256  -624.0424 H6            1 RES     
   27913 H6         921.3776  -741.2663  -624.5718 H6            1 RES     
   27914 H6         921.8619  -739.4283  -623.0974 H6            1 RES     
   27915 H6         920.6824  -739.1270  -624.3893 H6            1 RES     
   27916 H6         918.8148  -739.2826  -622.8795 H6            1 RES     
   27917 H6         919.8931  -739.5711  -621.4533 H6            1 RES     
   27918 H6         921.0665  -737.4294  -621.8318 H6            1 RES     
   27919 H6         920.1420  -737.1034  -623.3373 H6            1 RES     
   27920 H6         919.3635  -735.7611  -621.4182 H6            1 RES     
   27921 H6         918.8991  -737.2553  -620.5219 H6            1 RES     
   27922 H6         917.2368  -737.7806  -622.3763 H6            1 RES     
   27923 H6         916.9540  -736.1502  -621.6784 H6            1 RES     
   27924 H6         917.7923  -736.3070  -623.2654 H6            1 RES     
   27925 C0         925.3325  -742.8488  -626.4458 C0            1 RES     
   27926 C0         926.6879  -742.7186  -625.6138 C0            1 RES     
   27927 C0         927.7153  -741.9996  -626.5519 C0            1 RES     
   27928 C0         929.1778  -742.0001  -626.0629 C0            1 RES     
   27929 C0         930.1478  -741.2628  -627.0029 C0            1 RES     
   27930 C0         930.2453  -741.8205  -628.4341 C0            1 RES     
   27931 C0         930.5684  -743.3208  -628.5303 C0            1 RES     
   27932 C0         931.8816  -743.7106  -627.8291 C0            1 RES     
   27933 C0         932.1874  -745.2137  -627.9301 C0            1 RES     
   27934 C0         932.4862  -745.6687  -629.3698 C0            1 RES     
   27935 C0         932.9140  -747.1420  -629.4571 C0            1 RES     
   27936 C0         931.8055  -748.1168  -629.0597 C0            1 RES     
   27937 C0         926.8014  -742.1849  -624.1241 C0            1 RES     
   27938 C0         926.5187  -740.7004  -623.7577 C0            1 RES     
   27939 C0         925.1794  -740.5236  -623.0199 C0            1 RES     
   27940 C0         924.7763  -739.1003  -622.6717 C0            1 RES     
   27941 C0         925.5418  -738.4220  -621.5442 C0            1 RES     
   27942 C0         924.8409  -737.0760  -621.2683 C0            1 RES     
   27943 C0         925.3808  -736.3163  -620.0552 C0            1 RES     
   27944 C0         925.0761  -737.0325  -618.7386 C0            1 RES     
   27945 H6         925.2785  -742.0051  -627.1726 H6            1 RES     
   27946 H6         925.5193  -743.7002  -627.1387 H6            1 RES     
   27947 H6         927.0276  -743.7738  -625.4990 H6            1 RES     
   27948 H6         927.3935  -740.9466  -626.7031 H6            1 RES     
   27949 H6         927.6884  -742.5102  -627.5385 H6            1 RES     
   27950 H6         929.5132  -743.0472  -625.9092 H6            1 RES     
   27951 H6         929.2618  -741.4595  -625.1002 H6            1 RES     
   27952 H6         931.1558  -741.2896  -626.5367 H6            1 RES     
   27953 H6         929.8522  -740.1925  -627.0671 H6            1 RES     
   27954 H6         931.0292  -741.2431  -628.9715 H6            1 RES     
   27955 H6         929.2858  -741.6399  -628.9640 H6            1 RES     
   27956 H6         929.7328  -743.9095  -628.0952 H6            1 RES     
   27957 H6         930.6279  -743.5647  -629.6106 H6            1 RES     
   27958 H6         931.7953  -743.4738  -626.7481 H6            1 RES     
   27959 H6         932.7297  -743.1258  -628.2465 H6            1 RES     
   27960 H6         933.0870  -745.4164  -627.3090 H6            1 RES     
   27961 H6         931.3344  -745.7825  -627.5026 H6            1 RES     
   27962 H6         931.6050  -745.5164  -630.0265 H6            1 RES     
   27963 H6         933.3245  -745.0511  -629.7599 H6            1 RES     
   27964 H6         933.8084  -747.3130  -628.8194 H6            1 RES     
   27965 H6         933.1946  -747.3561  -630.5109 H6            1 RES     
   27966 H6         931.5171  -747.9884  -627.9969 H6            1 RES     
   27967 H6         930.9137  -747.9679  -629.7050 H6            1 RES     
   27968 H6         932.1685  -749.1578  -629.1917 H6            1 RES     
   27969 H6         927.8573  -742.3576  -623.8460 H6            1 RES     
   27970 H6         926.3542  -742.8703  -623.3798 H6            1 RES     
   27971 H6         927.2847  -740.3835  -623.0160 H6            1 RES     
   27972 H6         926.6252  -740.0452  -624.6459 H6            1 RES     
   27973 H6         925.1576  -741.1577  -622.1046 H6            1 RES     
   27974 H6         924.3638  -740.8372  -623.6619 H6            1 RES     
   27975 H6         924.7711  -738.4733  -623.5898 H6            1 RES     
   27976 H6         923.7469  -739.1860  -622.2865 H6            1 RES     
   27977 H6         925.4860  -739.0813  -620.6524 H6            1 RES     
   27978 H6         926.6059  -738.2659  -621.8183 H6            1 RES     
   27979 H6         924.9547  -736.4369  -622.1715 H6            1 RES     
   27980 H6         923.7500  -737.2349  -621.1045 H6            1 RES     
   27981 H6         924.8651  -735.3314  -620.0257 H6            1 RES     
   27982 H6         926.4696  -736.1437  -620.1664 H6            1 RES     
   27983 H6         925.5936  -738.0105  -618.6800 H6            1 RES     
   27984 H6         925.4224  -736.4052  -617.8919 H6            1 RES     
   27985 H6         923.9807  -737.1929  -618.6320 H6            1 RES     
   27986 C0         920.9617  -754.6335  -631.0441 C0            1 RES     
   27987 C1         920.6959  -753.1178  -630.9109 C1            1 RES     
   27988 C1         919.9275  -752.6367  -631.9224 C1            1 RES     
   27989 S2         919.6968  -750.9798  -631.8585 S2            1 RES     
   27990 C1         920.6699  -750.8309  -630.4722 C1            1 RES     
   27991 C1         921.1621  -752.0819  -630.0844 C1            1 RES     
   27992 C1         919.6351  -753.6919  -632.8133 C1            1 RES     
   27993 C1         920.2738  -754.8188  -632.3974 C1            1 RES     
   27994 C1         920.1475  -755.8633  -633.3053 C1            1 RES     
   27995 C1         919.3553  -755.4750  -634.3990 C1            1 RES     
   27996 S2         918.8327  -753.8654  -634.2599 S2            1 RES     
   27997 H3         921.8583  -752.1854  -629.2739 H3            1 RES     
   27998 H3         920.6026  -756.8393  -633.1862 H3            1 RES     
   27999 N4         917.5545  -757.4232  -637.0470 N4            1 RES     
   28000 C1         917.7928  -756.7189  -635.9018 C1            1 RES     
   28001 C1         919.0880  -756.2680  -635.5937 C1            1 RES     
   28002 C1         920.1134  -756.5410  -636.5008 C1            1 RES     
   28003 N4         921.3938  -756.1144  -636.3524 N4            1 RES     
   28004 S2         922.1113  -756.6719  -637.7331 S2            1 RES     
   28005 N4         920.8843  -757.4423  -638.5326 N4            1 RES     
   28006 C1         919.8363  -757.2572  -637.6923 C1            1 RES     
   28007 C1         918.5422  -757.7062  -637.9420 C1            1 RES     
   28008 H5         916.9708  -756.5155  -635.2210 H5            1 RES     
   28009 C0         920.3131  -755.6272  -630.0171 C0            1 RES     
   28010 C0         918.8139  -756.0792  -629.8437 C0            1 RES     
   28011 C0         918.8053  -756.9835  -628.5613 C0            1 RES     
   28012 C0         917.4697  -757.6354  -628.1827 C0            1 RES     
   28013 C0         917.5684  -758.4596  -626.8774 C0            1 RES     
   28014 C0         918.5334  -759.6652  -626.9144 C0            1 RES     
   28015 C0         918.2704  -760.6709  -628.0491 C0            1 RES     
   28016 C0         916.8453  -761.2514  -628.0222 C0            1 RES     
   28017 C0         916.5677  -762.2118  -629.1876 C0            1 RES     
   28018 C0         917.3910  -763.5088  -629.1128 C0            1 RES     
   28019 C0         917.0223  -764.5105  -630.2187 C0            1 RES     
   28020 C0         917.3704  -764.0133  -631.6222 C0            1 RES     
   28021 C0         917.6810  -755.0020  -629.8098 C0            1 RES     
   28022 C0         917.6402  -753.9750  -628.6367 C0            1 RES     
   28023 C0         917.7407  -752.5594  -629.2131 C0            1 RES     
   28024 C0         918.0480  -751.4145  -628.2521 C0            1 RES     
   28025 C0         916.8789  -750.8845  -627.4348 C0            1 RES     
   28026 C0         917.3987  -749.7118  -626.5769 C0            1 RES     
   28027 C0         916.3044  -748.9409  -625.8350 C0            1 RES     
   28028 C0         915.3979  -748.1588  -626.7878 C0            1 RES     
   28029 H6         920.5899  -755.2820  -629.0538 H6            1 RES     
   28030 H6         920.8476  -756.5880  -630.1924 H6            1 RES     
   28031 H6         918.5700  -756.7143  -630.7245 H6            1 RES     
   28032 H6         919.1357  -756.3819  -627.6865 H6            1 RES     
   28033 H6         919.5516  -757.7926  -628.7128 H6            1 RES     
   28034 H6         917.1034  -758.2668  -629.0176 H6            1 RES     
   28035 H6         916.7186  -756.8430  -627.9896 H6            1 RES     
   28036 H6         916.5516  -758.8224  -626.6209 H6            1 RES     
   28037 H6         917.8837  -757.7922  -626.0449 H6            1 RES     
   28038 H6         918.4614  -760.1944  -625.9381 H6            1 RES     
   28039 H6         919.5800  -759.3043  -627.0075 H6            1 RES     
   28040 H6         918.4485  -760.1750  -629.0265 H6            1 RES     
   28041 H6         919.0138  -761.4882  -627.9440 H6            1 RES     
   28042 H6         916.1182  -760.4205  -628.1267 H6            1 RES     
   28043 H6         916.6551  -761.7626  -627.0531 H6            1 RES     
   28044 H6         915.4902  -762.4833  -629.1488 H6            1 RES     
   28045 H6         916.7572  -761.6749  -630.1408 H6            1 RES     
   28046 H6         918.4780  -763.2939  -629.1730 H6            1 RES     
   28047 H6         917.1829  -763.9938  -628.1342 H6            1 RES     
   28048 H6         915.9375  -764.7486  -630.1655 H6            1 RES     
   28049 H6         917.5907  -765.4484  -630.0386 H6            1 RES     
   28050 H6         916.7925  -763.1041  -631.8842 H6            1 RES     
   28051 H6         918.4567  -763.7925  -631.6918 H6            1 RES     
   28052 H6         917.1199  -764.8009  -632.3635 H6            1 RES     
   28053 H6         916.7081  -755.5384  -629.7987 H6            1 RES     
   28054 H6         917.6601  -754.4890  -630.7952 H6            1 RES     
   28055 H6         916.6823  -754.0543  -628.0754 H6            1 RES     
   28056 H6         918.4720  -754.1706  -627.9299 H6            1 RES     
   28057 H6         916.8872  -752.3141  -629.8795 H6            1 RES     
   28058 H6         918.6191  -752.6045  -629.8211 H6            1 RES     
   28059 H6         918.8802  -751.7039  -627.6058 H6            1 RES     
   28060 H6         918.4009  -750.5649  -628.8800 H6            1 RES     
   28061 H6         916.1068  -750.5372  -628.1535 H6            1 RES     
   28062 H6         916.4458  -751.6745  -626.7855 H6            1 RES     
   28063 H6         918.1164  -750.1234  -625.8314 H6            1 RES     
   28064 H6         917.9541  -748.9826  -627.2096 H6            1 RES     
   28065 H6         916.8035  -748.2014  -625.1708 H6            1 RES     
   28066 H6         915.7061  -749.6319  -625.2047 H6            1 RES     
   28067 H6         914.8334  -748.8355  -627.4591 H6            1 RES     
   28068 H6         914.6684  -747.5647  -626.2008 H6            1 RES     
   28069 H6         916.0046  -747.4586  -627.4045 H6            1 RES     
   28070 C0         922.5345  -754.7725  -631.0967 C0            1 RES     
   28071 C0         923.4469  -755.4443  -629.9731 C0            1 RES     
   28072 C0         924.8914  -754.8753  -630.1778 C0            1 RES     
   28073 C0         926.0050  -755.5805  -629.3775 C0            1 RES     
   28074 C0         927.4032  -754.9739  -629.5907 C0            1 RES     
   28075 C0         927.9283  -754.9966  -631.0373 C0            1 RES     
   28076 C0         927.9221  -756.3777  -631.7134 C0            1 RES     
   28077 C0         928.7329  -757.4380  -630.9475 C0            1 RES     
   28078 C0         928.7124  -758.8136  -631.6334 C0            1 RES     
   28079 C0         929.4433  -758.8183  -632.9880 C0            1 RES     
   28080 C0         929.5331  -760.2175  -633.6167 C0            1 RES     
   28081 C0         928.1715  -760.7909  -634.0098 C0            1 RES     
   28082 C0         923.0819  -755.5399  -628.4321 C0            1 RES     
   28083 C0         923.0147  -754.2806  -627.5223 C0            1 RES     
   28084 C0         921.5687  -753.8924  -627.1649 C0            1 RES     
   28085 C0         921.3876  -752.6355  -626.3299 C0            1 RES     
   28086 C0         921.7788  -752.7198  -624.8612 C0            1 RES     
   28087 C0         921.3430  -751.3958  -624.2009 C0            1 RES     
   28088 C0         921.5174  -751.3567  -622.6817 C0            1 RES     
   28089 C0         920.5701  -752.3190  -621.9634 C0            1 RES     
   28090 H6         922.9584  -753.7726  -631.3487 H6            1 RES     
   28091 H6         922.7845  -755.3369  -632.0235 H6            1 RES     
   28092 H6         923.4713  -756.5200  -630.2635 H6            1 RES     
   28093 H6         924.8968  -753.7954  -629.9148 H6            1 RES     
   28094 H6         925.1415  -754.9653  -631.2568 H6            1 RES     
   28095 H6         926.0122  -756.6611  -629.6323 H6            1 RES     
   28096 H6         925.8221  -755.4772  -628.2904 H6            1 RES     
   28097 H6         928.1142  -755.5276  -628.9410 H6            1 RES     
   28098 H6         927.4017  -753.9189  -629.2387 H6            1 RES     
   28099 H6         928.9668  -754.5991  -631.0285 H6            1 RES     
   28100 H6         927.3195  -754.3059  -631.6590 H6            1 RES     
   28101 H6         926.8749  -756.7306  -631.8280 H6            1 RES     
   28102 H6         928.3450  -756.2367  -632.7289 H6            1 RES     
   28103 H6         928.2841  -757.5756  -629.9416 H6            1 RES     
   28104 H6         929.7833  -757.0992  -630.8162 H6            1 RES     
   28105 H6         929.2270  -759.5330  -630.9597 H6            1 RES     
   28106 H6         927.6572  -759.1402  -631.7501 H6            1 RES     
   28107 H6         928.9481  -758.1368  -633.7100 H6            1 RES     
   28108 H6         930.4816  -758.4570  -632.8212 H6            1 RES     
   28109 H6         930.0434  -760.9134  -632.9159 H6            1 RES     
   28110 H6         930.1497  -760.1409  -634.5382 H6            1 RES     
   28111 H6         927.5255  -760.9418  -633.1215 H6            1 RES     
   28112 H6         927.6616  -760.1124  -634.7264 H6            1 RES     
   28113 H6         928.3168  -761.7775  -634.4980 H6            1 RES     
   28114 H6         923.8771  -756.1720  -627.9962 H6            1 RES     
   28115 H6         922.2388  -756.2255  -628.2251 H6            1 RES     
   28116 H6         923.4777  -754.5439  -626.5459 H6            1 RES     
   28117 H6         923.6034  -753.4466  -627.9551 H6            1 RES     
   28118 H6         921.0496  -754.7486  -626.6773 H6            1 RES     
   28119 H6         921.0231  -753.6425  -628.0680 H6            1 RES     
   28120 H6         921.8820  -751.7746  -626.8301 H6            1 RES     
   28121 H6         920.2985  -752.4656  -626.3104 H6            1 RES     
   28122 H6         921.2330  -753.5773  -624.4139 H6            1 RES     
   28123 H6         922.8710  -752.8801  -624.7450 H6            1 RES     
   28124 H6         921.9407  -750.5731  -624.6518 H6            1 RES     
   28125 H6         920.2698  -751.1900  -624.4194 H6            1 RES     
   28126 H6         921.2636  -750.3272  -622.3462 H6            1 RES     
   28127 H6         922.5713  -751.5681  -622.4127 H6            1 RES     
   28128 H6         920.7924  -753.3737  -622.2202 H6            1 RES     
   28129 H6         920.6860  -752.1968  -620.8670 H6            1 RES     
   28130 H6         919.5149  -752.0931  -622.2325 H6            1 RES     
   28131 C0         917.8259  -761.7616  -641.4943 C0            1 RES     
   28132 C1         917.8721  -760.4009  -640.7648 C1            1 RES     
   28133 C1         917.6897  -759.3540  -641.6109 C1            1 RES     
   28134 S2         917.8258  -757.8603  -640.8673 S2            1 RES     
   28135 C1         918.1834  -758.5675  -639.3630 C1            1 RES     
   28136 C1         918.1936  -759.9626  -639.4693 C1            1 RES     
   28137 C1         917.5444  -759.8504  -642.9243 C1            1 RES     
   28138 C1         917.7017  -761.2017  -642.9121 C1            1 RES     
   28139 C1         917.7138  -761.7438  -644.1917 C1            1 RES     
   28140 C1         917.5218  -760.7400  -645.1560 C1            1 RES     
   28141 S2         917.3572  -759.2061  -644.4464 S2            1 RES     
   28142 H3         918.4741  -760.5873  -638.6427 H3            1 RES     
   28143 H3         917.8572  -762.7948  -644.4122 H3            1 RES     
   28144 N4         916.5215  -760.8476  -648.7668 N4            1 RES     
   28145 C1         916.4410  -760.7224  -647.4096 C1            1 RES     
   28146 C1         917.5762  -760.9140  -646.6032 C1            1 RES     
   28147 C1         918.7871  -761.2119  -647.2308 C1            1 RES     
   28148 N4         919.9665  -761.3637  -646.5755 N4            1 RES     
   28149 S2         921.0252  -761.6308  -647.8163 S2            1 RES     
   28150 N4         920.0728  -761.5703  -649.1682 N4            1 RES     
   28151 C1         918.8486  -761.3171  -648.6431 C1            1 RES     
   28152 C1         917.6918  -761.1445  -649.3986 C1            1 RES     
   28153 H5         915.4851  -760.4810  -646.9529 H5            1 RES     
   28154 C0         916.6237  -762.7374  -641.2387 C0            1 RES     
   28155 C0         915.1172  -762.6386  -641.6887 C0            1 RES     
   28156 C0         914.4060  -763.8600  -641.0071 C0            1 RES     
   28157 C0         912.9206  -764.0647  -641.3296 C0            1 RES     
   28158 C0         912.3140  -765.2642  -640.5641 C0            1 RES     
   28159 C0         912.9229  -766.6463  -640.8879 C0            1 RES     
   28160 C0         912.9106  -767.0265  -642.3790 C0            1 RES     
   28161 C0         911.4992  -767.0152  -642.9926 C0            1 RES     
   28162 C0         911.4959  -767.3401  -644.4932 C0            1 RES     
   28163 C0         911.9141  -768.7880  -644.8003 C0            1 RES     
   28164 C0         911.7969  -769.1359  -646.2928 C0            1 RES     
   28165 C0         912.7685  -768.3487  -647.1728 C0            1 RES     
   28166 C0         914.3312  -761.3047  -641.4697 C0            1 RES     
   28167 C0         914.0621  -760.8082  -640.0158 C0            1 RES     
   28168 C0         914.6915  -759.4229  -639.8403 C0            1 RES     
   28169 C0         914.8424  -758.8787  -638.4226 C0            1 RES     
   28170 C0         913.5955  -758.2751  -637.7929 C0            1 RES     
   28171 C0         913.9827  -757.7492  -636.3948 C0            1 RES     
   28172 C0         912.8856  -756.9388  -635.7008 C0            1 RES     
   28173 C0         912.6234  -755.6017  -636.3969 C0            1 RES     
   28174 H6         916.5694  -762.8737  -640.1888 H6            1 RES     
   28175 H6         916.9569  -763.7026  -641.6826 H6            1 RES     
   28176 H6         915.1043  -762.7933  -642.7908 H6            1 RES     
   28177 H6         914.4909  -763.7638  -639.9025 H6            1 RES     
   28178 H6         914.9524  -764.7800  -641.3064 H6            1 RES     
   28179 H6         912.7814  -764.1873  -642.4230 H6            1 RES     
   28180 H6         912.3500  -763.1718  -641.0036 H6            1 RES     
   28181 H6         911.2253  -765.2938  -640.7764 H6            1 RES     
   28182 H6         912.4167  -765.0910  -639.4699 H6            1 RES     
   28183 H6         912.3583  -767.4147  -640.3140 H6            1 RES     
   28184 H6         913.9737  -766.6859  -640.5293 H6            1 RES     
   28185 H6         913.5629  -766.3254  -642.9410 H6            1 RES     
   28186 H6         913.3519  -768.0413  -642.4641 H6            1 RES     
   28187 H6         911.0752  -765.9949  -642.8965 H6            1 RES     
   28188 H6         910.8358  -767.7221  -642.4478 H6            1 RES     
   28189 H6         910.4586  -767.1934  -644.8657 H6            1 RES     
   28190 H6         912.1580  -766.6162  -645.0131 H6            1 RES     
   28191 H6         912.9557  -768.9798  -644.4692 H6            1 RES     
   28192 H6         911.2369  -769.4691  -644.2402 H6            1 RES     
   28193 H6         910.7548  -768.9625  -646.6397 H6            1 RES     
   28194 H6         912.0259  -770.2166  -646.4145 H6            1 RES     
   28195 H6         912.5569  -767.2610  -647.1364 H6            1 RES     
   28196 H6         913.8146  -768.5319  -646.8472 H6            1 RES     
   28197 H6         912.6613  -768.6809  -648.2267 H6            1 RES     
   28198 H6         913.3394  -761.4154  -641.9581 H6            1 RES     
   28199 H6         914.8129  -760.5132  -642.0829 H6            1 RES     
   28200 H6         912.9690  -760.7198  -639.8246 H6            1 RES     
   28201 H6         914.4839  -761.5263  -639.2837 H6            1 RES     
   28202 H6         914.2454  -758.6678  -640.5213 H6            1 RES     
   28203 H6         915.7043  -759.5734  -640.1485 H6            1 RES     
   28204 H6         915.2676  -759.6571  -637.7844 H6            1 RES     
   28205 H6         915.5921  -758.0570  -638.4809 H6            1 RES     
   28206 H6         913.2651  -757.4437  -638.4510 H6            1 RES     
   28207 H6         912.7791  -759.0234  -637.7106 H6            1 RES     
   28208 H6         914.2398  -758.6255  -635.7573 H6            1 RES     
   28209 H6         914.8883  -757.1039  -636.4585 H6            1 RES     
   28210 H6         913.2343  -756.7125  -634.6692 H6            1 RES     
   28211 H6         911.9510  -757.5345  -635.6332 H6            1 RES     
   28212 H6         912.2329  -755.7473  -637.4233 H6            1 RES     
   28213 H6         911.8734  -755.0242  -635.8192 H6            1 RES     
   28214 H6         913.5622  -755.0058  -636.4466 H6            1 RES     
   28215 C0         919.2198  -762.4396  -641.1894 C0            1 RES     
   28216 C0         919.4446  -763.7427  -640.2963 C0            1 RES     
   28217 C0         920.9406  -763.7096  -639.8344 C0            1 RES     
   28218 C0         921.4645  -765.0035  -639.1792 C0            1 RES     
   28219 C0         922.9306  -764.9180  -638.7196 C0            1 RES     
   28220 C0         923.9620  -764.6298  -639.8251 C0            1 RES     
   28221 C0         923.9158  -765.5869  -641.0278 C0            1 RES     
   28222 C0         924.1042  -767.0646  -640.6420 C0            1 RES     
   28223 C0         924.0502  -768.0083  -641.8543 C0            1 RES     
   28224 C0         925.2332  -767.8117  -642.8193 C0            1 RES     
   28225 C0         925.2500  -768.8360  -643.9647 C0            1 RES     
   28226 C0         924.0617  -768.6966  -644.9163 C0            1 RES     
   28227 C0         918.4930  -764.2244  -639.1218 C0            1 RES     
   28228 C0         918.3550  -763.4265  -637.7943 C0            1 RES     
   28229 C0         917.0099  -762.6849  -637.6933 C0            1 RES     
   28230 C0         916.7990  -761.8216  -636.4605 C0            1 RES     
   28231 C0         916.5533  -762.5455  -635.1442 C0            1 RES     
   28232 C0         916.1986  -761.4704  -634.0967 C0            1 RES     
   28233 C0         915.7667  -762.0258  -632.7384 C0            1 RES     
   28234 C0         914.4260  -762.7584  -632.8101 C0            1 RES     
   28235 H6         919.9186  -761.6440  -640.8406 H6            1 RES     
   28236 H6         919.6817  -762.6983  -642.1691 H6            1 RES     
   28237 H6         919.3420  -764.5805  -641.0241 H6            1 RES     
   28238 H6         921.0814  -762.8697  -639.1202 H6            1 RES     
   28239 H6         921.5673  -763.5059  -640.7292 H6            1 RES     
   28240 H6         921.3315  -765.8515  -639.8833 H6            1 RES     
   28241 H6         920.8975  -765.2231  -638.2538 H6            1 RES     
   28242 H6         923.1878  -765.8814  -638.2298 H6            1 RES     
   28243 H6         923.0249  -764.1278  -637.9427 H6            1 RES     
   28244 H6         924.9738  -764.6700  -639.3653 H6            1 RES     
   28245 H6         923.8156  -763.5952  -640.2022 H6            1 RES     
   28246 H6         922.9477  -765.4684  -641.5599 H6            1 RES     
   28247 H6         924.7230  -765.2688  -641.7186 H6            1 RES     
   28248 H6         923.2783  -767.3669  -639.9646 H6            1 RES     
   28249 H6         925.0655  -767.2022  -640.1012 H6            1 RES     
   28250 H6         924.0859  -769.0512  -641.4706 H6            1 RES     
   28251 H6         923.0817  -767.8635  -642.3784 H6            1 RES     
   28252 H6         925.2254  -766.7920  -643.2563 H6            1 RES     
   28253 H6         926.1747  -767.9377  -642.2413 H6            1 RES     
   28254 H6         925.2765  -769.8664  -643.5483 H6            1 RES     
   28255 H6         926.1790  -768.6771  -644.5537 H6            1 RES     
   28256 H6         923.1031  -768.8974  -644.3969 H6            1 RES     
   28257 H6         924.0380  -767.6759  -645.3539 H6            1 RES     
   28258 H6         924.1644  -769.4332  -645.7407 H6            1 RES     
   28259 H6         918.8918  -765.2125  -638.8277 H6            1 RES     
   28260 H6         917.5072  -764.5793  -639.4768 H6            1 RES     
   28261 H6         918.3268  -764.1612  -636.9597 H6            1 RES     
   28262 H6         919.2351  -762.7721  -637.6314 H6            1 RES     
   28263 H6         916.1655  -763.4030  -637.8013 H6            1 RES     
   28264 H6         916.9325  -761.9570  -638.4932 H6            1 RES     
   28265 H6         917.6275  -761.0860  -636.3677 H6            1 RES     
   28266 H6         915.8567  -761.2825  -636.6528 H6            1 RES     
   28267 H6         915.7006  -763.2409  -635.2941 H6            1 RES     
   28268 H6         917.4472  -763.1243  -634.8312 H6            1 RES     
   28269 H6         917.0913  -760.8228  -633.9521 H6            1 RES     
   28270 H6         915.3717  -760.8239  -634.4714 H6            1 RES     
   28271 H6         915.6367  -761.1595  -632.0533 H6            1 RES     
   28272 H6         916.5552  -762.6875  -632.3282 H6            1 RES     
   28273 H6         914.4916  -763.6622  -633.4478 H6            1 RES     
   28274 H6         914.1264  -763.0744  -631.7898 H6            1 RES     
   28275 H6         913.6397  -762.0836  -633.2140 H6            1 RES     
   28276 C0         917.5477  -763.1571  -654.4490 C0            1 RES     
   28277 C1         917.6041  -762.2508  -653.1995 C1            1 RES     
   28278 C1         918.0052  -760.9870  -653.4949 C1            1 RES     
   28279 S2         918.1659  -760.0037  -652.1496 S2            1 RES     
   28280 C1         917.7383  -761.2657  -651.0936 C1            1 RES     
   28281 C1         917.4799  -762.4378  -651.8127 C1            1 RES     
   28282 C1         918.2809  -760.9085  -654.8771 C1            1 RES     
   28283 C1         918.1172  -762.1377  -655.4368 C1            1 RES     
   28284 C1         918.5099  -762.1680  -656.7695 C1            1 RES     
   28285 C1         918.9393  -760.8971  -657.1876 C1            1 RES     
   28286 S2         918.8538  -759.7571  -655.9320 S2            1 RES     
   28287 H3         917.2676  -763.3661  -651.3171 H3            1 RES     
   28288 H3         918.4916  -763.0521  -657.3953 H3            1 RES     
   28289 N4         919.4393  -759.3751  -660.5764 N4            1 RES     
   28290 C1         918.8626  -759.7068  -659.3841 C1            1 RES     
   28291 C1         919.5172  -760.5670  -658.4856 C1            1 RES     
   28292 C1         920.7784  -761.0509  -658.8377 C1            1 RES     
   28293 N4         921.5405  -761.8407  -658.0384 N4            1 RES     
   28294 S2         922.9133  -762.0303  -658.9390 S2            1 RES     
   28295 N4         922.6070  -761.1617  -660.3138 N4            1 RES     
   28296 C1         921.3641  -760.6760  -660.0728 C1            1 RES     
   28297 C1         920.6661  -759.8419  -660.9422 C1            1 RES     
   28298 H5         917.8836  -759.3059  -659.1364 H5            1 RES     
   28299 C0         916.1580  -763.6479  -654.9880 C0            1 RES     
   28300 C0         915.0115  -762.8551  -655.7222 C0            1 RES     
   28301 C0         913.8386  -763.8854  -655.8803 C0            1 RES     
   28302 C0         912.5938  -763.4065  -656.6375 C0            1 RES     
   28303 C0         911.4861  -764.4851  -656.6869 C0            1 RES     
   28304 C0         911.8505  -765.7902  -657.4284 C0            1 RES     
   28305 C0         912.3403  -765.5985  -658.8746 C0            1 RES     
   28306 C0         911.3236  -764.8595  -659.7627 C0            1 RES     
   28307 C0         911.8375  -764.6201  -661.1897 C0            1 RES     
   28308 C0         912.0105  -765.9179  -661.9967 C0            1 RES     
   28309 C0         912.4145  -765.6594  -663.4569 C0            1 RES     
   28310 C0         913.8016  -765.0311  -663.5960 C0            1 RES     
   28311 C0         914.5194  -761.4905  -655.1382 C0            1 RES     
   28312 C0         913.8187  -761.4657  -653.7450 C0            1 RES     
   28313 C0         914.6187  -760.5604  -652.8035 C0            1 RES     
   28314 C0         914.3177  -760.6357  -651.3093 C0            1 RES     
   28315 C0         913.0912  -759.8752  -650.8267 C0            1 RES     
   28316 C0         913.0048  -760.0462  -649.2955 C0            1 RES     
   28317 C0         911.9326  -759.1841  -648.6252 C0            1 RES     
   28318 C0         912.2679  -757.6923  -648.6823 C0            1 RES     
   28319 H6         915.6673  -764.1087  -654.1691 H6            1 RES     
   28320 H6         916.4157  -764.4503  -655.7157 H6            1 RES     
   28321 H6         915.3982  -762.6030  -656.7348 H6            1 RES     
   28322 H6         913.5023  -764.2152  -654.8730 H6            1 RES     
   28323 H6         914.2400  -764.7767  -656.4083 H6            1 RES     
   28324 H6         912.8713  -763.0833  -657.6615 H6            1 RES     
   28325 H6         912.1542  -762.5388  -656.1054 H6            1 RES     
   28326 H6         910.5909  -764.0384  -657.1668 H6            1 RES     
   28327 H6         911.1867  -764.7514  -655.6490 H6            1 RES     
   28328 H6         910.9511  -766.4455  -657.4350 H6            1 RES     
   28329 H6         912.6391  -766.3332  -656.8650 H6            1 RES     
   28330 H6         913.2985  -765.0375  -658.8653 H6            1 RES     
   28331 H6         912.5428  -766.6073  -659.2905 H6            1 RES     
   28332 H6         911.1334  -763.8560  -659.3305 H6            1 RES     
   28333 H6         910.3610  -765.4155  -659.7922 H6            1 RES     
   28334 H6         911.0901  -763.9845  -661.7129 H6            1 RES     
   28335 H6         912.7929  -764.0575  -661.1316 H6            1 RES     
   28336 H6         912.7680  -766.5797  -661.5280 H6            1 RES     
   28337 H6         911.0352  -766.4519  -662.0051 H6            1 RES     
   28338 H6         911.6587  -765.0080  -663.9476 H6            1 RES     
   28339 H6         912.4272  -766.6348  -663.9895 H6            1 RES     
   28340 H6         913.8393  -764.0266  -663.1284 H6            1 RES     
   28341 H6         914.5670  -765.6852  -663.1269 H6            1 RES     
   28342 H6         914.0457  -764.9144  -664.6727 H6            1 RES     
   28343 H6         913.8011  -761.0540  -655.8648 H6            1 RES     
   28344 H6         915.3654  -760.7712  -655.1764 H6            1 RES     
   28345 H6         912.7875  -761.0551  -653.8287 H6            1 RES     
   28346 H6         913.7489  -762.4938  -653.3351 H6            1 RES     
   28347 H6         914.6549  -759.5092  -653.1593 H6            1 RES     
   28348 H6         915.6104  -760.9549  -652.8686 H6            1 RES     
   28349 H6         914.2744  -761.6846  -651.0059 H6            1 RES     
   28350 H6         915.1919  -760.1804  -650.7906 H6            1 RES     
   28351 H6         913.2387  -758.8084  -651.0981 H6            1 RES     
   28352 H6         912.1643  -760.2510  -651.3092 H6            1 RES     
   28353 H6         912.7900  -761.1177  -649.0811 H6            1 RES     
   28354 H6         913.9812  -759.7985  -648.8203 H6            1 RES     
   28355 H6         911.8892  -759.4730  -647.5520 H6            1 RES     
   28356 H6         910.9397  -759.3797  -649.0822 H6            1 RES     
   28357 H6         912.2898  -757.3201  -649.7255 H6            1 RES     
   28358 H6         911.4996  -757.1184  -648.1254 H6            1 RES     
   28359 H6         913.2575  -757.5043  -648.2088 H6            1 RES     
   28360 C0         918.5222  -764.3589  -654.1302 C0            1 RES     
   28361 C0         918.0837  -765.8757  -653.8995 C0            1 RES     
   28362 C0         919.2453  -766.5548  -653.0984 C0            1 RES     
   28363 C0         919.1692  -768.0911  -652.9878 C0            1 RES     
   28364 C0         920.3167  -768.7133  -652.1728 C0            1 RES     
   28365 C0         921.7351  -768.4599  -652.7141 C0            1 RES     
   28366 C0         921.9537  -768.8539  -654.1844 C0            1 RES     
   28367 C0         921.6431  -770.3328  -654.4746 C0            1 RES     
   28368 C0         921.8616  -770.7091  -655.9491 C0            1 RES     
   28369 C0         923.3398  -770.6391  -656.3723 C0            1 RES     
   28370 C0         923.5773  -771.1340  -657.8075 C0            1 RES     
   28371 C0         922.9208  -770.2492  -658.8673 C0            1 RES     
   28372 C0         916.6666  -766.3492  -653.3661 C0            1 RES     
   28373 C0         916.1993  -766.0684  -651.9098 C0            1 RES     
   28374 C0         915.1232  -764.9699  -651.8411 C0            1 RES     
   28375 C0         914.6425  -764.5731  -650.4550 C0            1 RES     
   28376 C0         913.7463  -765.5636  -649.7251 C0            1 RES     
   28377 C0         913.2568  -764.8671  -648.4389 C0            1 RES     
   28378 C0         912.2152  -765.6584  -647.6457 C0            1 RES     
   28379 C0         910.8842  -765.7752  -648.3900 C0            1 RES     
   28380 H6         919.1854  -764.0482  -653.2896 H6            1 RES     
   28381 H6         919.2616  -764.4128  -654.9611 H6            1 RES     
   28382 H6         918.0921  -766.3102  -654.9258 H6            1 RES     
   28383 H6         919.2769  -766.1278  -652.0727 H6            1 RES     
   28384 H6         920.2010  -766.2991  -653.6045 H6            1 RES     
   28385 H6         919.1389  -768.5314  -654.0065 H6            1 RES     
   28386 H6         918.2513  -768.3930  -652.4472 H6            1 RES     
   28387 H6         920.1407  -769.8091  -652.1237 H6            1 RES     
   28388 H6         920.2711  -768.3338  -651.1283 H6            1 RES     
   28389 H6         922.4490  -769.0243  -652.0750 H6            1 RES     
   28390 H6         921.9815  -767.3821  -652.6059 H6            1 RES     
   28391 H6         921.3245  -768.2129  -654.8383 H6            1 RES     
   28392 H6         923.0159  -768.6360  -654.4175 H6            1 RES     
   28393 H6         920.5731  -770.5256  -654.2507 H6            1 RES     
   28394 H6         922.2586  -770.9908  -653.8238 H6            1 RES     
   28395 H6         921.5117  -771.7557  -656.0844 H6            1 RES     
   28396 H6         921.2347  -770.0479  -656.5843 H6            1 RES     
   28397 H6         923.7302  -769.6042  -656.2855 H6            1 RES     
   28398 H6         923.9255  -771.2926  -655.6896 H6            1 RES     
   28399 H6         923.2092  -772.1778  -657.9118 H6            1 RES     
   28400 H6         924.6729  -771.1334  -657.9939 H6            1 RES     
   28401 H6         921.8167  -770.2510  -658.7669 H6            1 RES     
   28402 H6         923.2975  -769.2075  -658.7847 H6            1 RES     
   28403 H6         923.1727  -770.6381  -659.8763 H6            1 RES     
   28404 H6         916.6883  -767.4506  -653.4578 H6            1 RES     
   28405 H6         915.8472  -766.1720  -654.0878 H6            1 RES     
   28406 H6         915.6839  -766.9814  -651.5382 H6            1 RES     
   28407 H6         917.0661  -765.8819  -651.2439 H6            1 RES     
   28408 H6         914.2527  -765.2435  -652.4796 H6            1 RES     
   28409 H6         915.5292  -764.0362  -652.2138 H6            1 RES     
   28410 H6         915.5086  -764.2733  -649.8258 H6            1 RES     
   28411 H6         913.9962  -763.6958  -650.6222 H6            1 RES     
   28412 H6         912.8898  -765.8001  -650.3912 H6            1 RES     
   28413 H6         914.2932  -766.4993  -649.4856 H6            1 RES     
   28414 H6         914.1404  -764.6847  -647.7885 H6            1 RES     
   28415 H6         912.8089  -763.8762  -648.6828 H6            1 RES     
   28416 H6         912.0223  -765.0992  -646.7039 H6            1 RES     
   28417 H6         912.6116  -766.6606  -647.3887 H6            1 RES     
   28418 H6         910.9927  -766.3595  -649.3252 H6            1 RES     
   28419 H6         910.1464  -766.2911  -647.7419 H6            1 RES     
   28420 H6         910.4902  -764.7645  -648.6353 H6            1 RES     
   28421 C0         922.0732  -759.7814  -666.1952 C0            1 RES     
   28422 C1         921.8342  -759.4512  -664.7054 C1            1 RES     
   28423 C1         922.5881  -758.4043  -664.2802 C1            1 RES     
   28424 S2         922.4215  -758.0789  -662.6466 S2            1 RES     
   28425 C1         921.3458  -759.3776  -662.4296 C1            1 RES     
   28426 C1         921.1377  -760.0468  -663.6406 C1            1 RES     
   28427 C1         923.3940  -757.9596  -665.3505 C1            1 RES     
   28428 C1         923.1951  -758.7679  -666.4265 C1            1 RES     
   28429 C1         924.0619  -758.4772  -667.4731 C1            1 RES     
   28430 C1         924.8908  -757.3921  -667.1420 C1            1 RES     
   28431 S2         924.5744  -756.8101  -665.5784 S2            1 RES     
   28432 H3         920.5480  -760.9422  -663.6938 H3            1 RES     
   28433 H3         924.0952  -759.0179  -668.4114 H3            1 RES     
   28434 N4         927.0041  -755.0888  -669.2106 N4            1 RES     
   28435 C1         925.9480  -755.5763  -668.4957 C1            1 RES     
   28436 C1         925.9892  -756.8698  -667.9473 C1            1 RES     
   28437 C1         927.1460  -757.6282  -668.1354 C1            1 RES     
   28438 N4         927.3377  -758.8660  -667.6116 N4            1 RES     
   28439 S2         928.8747  -759.2213  -668.1049 S2            1 RES     
   28440 N4         929.3331  -757.8834  -668.9641 N4            1 RES     
   28441 C1         928.2366  -757.0918  -668.8650 C1            1 RES     
   28442 C1         928.1394  -755.8150  -669.4117 C1            1 RES     
   28443 H5         925.0656  -754.9569  -668.3600 H5            1 RES     
   28444 C0         920.9354  -759.5100  -667.2413 C0            1 RES     
   28445 C0         920.3756  -758.1512  -667.8091 C0            1 RES     
   28446 C0         919.1623  -758.5568  -668.7178 C0            1 RES     
   28447 C0         918.4542  -757.4252  -669.4731 C0            1 RES     
   28448 C0         917.2458  -757.9342  -670.2938 C0            1 RES     
   28449 C0         917.5729  -758.9386  -671.4206 C0            1 RES     
   28450 C0         918.6201  -758.4525  -672.4381 C0            1 RES     
   28451 C0         918.2247  -757.1345  -673.1274 C0            1 RES     
   28452 C0         919.2964  -756.6226  -674.1006 C0            1 RES     
   28453 C0         919.4799  -757.5281  -675.3302 C0            1 RES     
   28454 C0         920.4708  -756.9479  -676.3519 C0            1 RES     
   28455 C0         921.9029  -756.8652  -675.8223 C0            1 RES     
   28456 C0         920.0095  -756.9941  -666.8231 C0            1 RES     
   28457 C0         918.8428  -757.1977  -665.8083 C0            1 RES     
   28458 C0         919.3881  -757.0342  -664.3863 C0            1 RES     
   28459 C0         918.5165  -757.5055  -663.2258 C0            1 RES     
   28460 C0         917.4006  -756.5662  -662.7922 C0            1 RES     
   28461 C0         916.6848  -757.2117  -661.5871 C0            1 RES     
   28462 C0         915.6556  -756.3059  -660.9070 C0            1 RES     
   28463 C0         916.3079  -755.1203  -660.1928 C0            1 RES     
   28464 H6         920.0739  -760.0114  -666.8805 H6            1 RES     
   28465 H6         921.2732  -760.0459  -668.1569 H6            1 RES     
   28466 H6         921.1740  -757.7249  -668.4568 H6            1 RES     
   28467 H6         918.3937  -759.0668  -668.0967 H6            1 RES     
   28468 H6         919.5303  -759.2913  -669.4658 H6            1 RES     
   28469 H6         919.1754  -756.8937  -670.1268 H6            1 RES     
   28470 H6         918.0453  -756.6986  -668.7423 H6            1 RES     
   28471 H6         916.7339  -757.0544  -670.7356 H6            1 RES     
   28472 H6         916.5123  -758.4134  -669.6081 H6            1 RES     
   28473 H6         916.6274  -759.1729  -671.9587 H6            1 RES     
   28474 H6         917.9355  -759.8915  -670.9792 H6            1 RES     
   28475 H6         919.5962  -758.3221  -671.9249 H6            1 RES     
   28476 H6         918.7406  -759.2544  -673.1958 H6            1 RES     
   28477 H6         918.1076  -756.3474  -672.3549 H6            1 RES     
   28478 H6         917.2537  -757.2520  -673.6567 H6            1 RES     
   28479 H6         918.9753  -755.6189  -674.4550 H6            1 RES     
   28480 H6         920.2511  -756.5068  -673.5459 H6            1 RES     
   28481 H6         919.8256  -758.5393  -675.0314 H6            1 RES     
   28482 H6         918.4943  -757.6291  -675.8348 H6            1 RES     
   28483 H6         920.1330  -755.9386  -676.6737 H6            1 RES     
   28484 H6         920.4750  -757.6110  -677.2438 H6            1 RES     
   28485 H6         921.9757  -756.1730  -674.9593 H6            1 RES     
   28486 H6         922.2572  -757.8729  -675.5175 H6            1 RES     
   28487 H6         922.5691  -756.4816  -676.6231 H6            1 RES     
   28488 H6         919.7501  -756.1026  -667.4334 H6            1 RES     
   28489 H6         920.9391  -756.6694  -666.3084 H6            1 RES     
   28490 H6         918.0460  -756.4361  -665.9644 H6            1 RES     
   28491 H6         918.3919  -758.2019  -665.9424 H6            1 RES     
   28492 H6         919.7930  -756.0163  -664.2046 H6            1 RES     
   28493 H6         920.2116  -757.7158  -664.3601 H6            1 RES     
   28494 H6         918.1264  -758.5007  -663.4531 H6            1 RES     
   28495 H6         919.1942  -757.6119  -662.3483 H6            1 RES     
   28496 H6         917.8751  -755.6048  -662.5022 H6            1 RES     
   28497 H6         916.6792  -756.3844  -663.6166 H6            1 RES     
   28498 H6         916.1715  -758.1327  -661.9455 H6            1 RES     
   28499 H6         917.4249  -757.5197  -660.8138 H6            1 RES     
   28500 H6         915.1318  -756.9107  -660.1344 H6            1 RES     
   28501 H6         914.9053  -755.9531  -661.6455 H6            1 RES     
   28502 H6         916.8192  -754.4461  -660.9079 H6            1 RES     
   28503 H6         915.5307  -754.5356  -659.6601 H6            1 RES     
   28504 H6         917.0471  -755.4842  -659.4446 H6            1 RES     
   28505 C0         922.5519  -761.2868  -666.2116 C0            1 RES     
   28506 C0         921.7339  -762.5162  -666.8162 C0            1 RES     
   28507 C0         922.3060  -763.8055  -666.1359 C0            1 RES     
   28508 C0         921.8544  -765.1429  -666.7566 C0            1 RES     
   28509 C0         922.4211  -766.3826  -666.0424 C0            1 RES     
   28510 C0         923.9559  -766.4962  -666.0170 C0            1 RES     
   28511 C0         924.6406  -766.4083  -667.3911 C0            1 RES     
   28512 C0         924.1495  -767.4717  -668.3891 C0            1 RES     
   28513 C0         924.8397  -767.3670  -669.7587 C0            1 RES     
   28514 C0         926.3409  -767.7017  -669.6999 C0            1 RES     
   28515 C0         927.0065  -767.7201  -671.0848 C0            1 RES     
   28516 C0         927.0323  -766.3488  -671.7601 C0            1 RES     
   28517 C0         920.1546  -762.5906  -666.9475 C0            1 RES     
   28518 C0         919.2282  -762.6803  -665.7018 C0            1 RES     
   28519 C0         918.4839  -761.3609  -665.4287 C0            1 RES     
   28520 C0         917.5989  -761.3213  -664.1938 C0            1 RES     
   28521 C0         916.2929  -762.1010  -664.2549 C0            1 RES     
   28522 C0         915.5056  -761.7646  -662.9719 C0            1 RES     
   28523 C0         914.0892  -762.3408  -662.9271 C0            1 RES     
   28524 C0         913.1671  -761.6968  -663.9635 C0            1 RES     
   28525 H6         922.8830  -761.5521  -665.1806 H6            1 RES     
   28526 H6         923.5260  -761.3170  -666.7502 H6            1 RES     
   28527 H6         922.0477  -762.5398  -667.8853 H6            1 RES     
   28528 H6         922.0264  -763.8028  -665.0602 H6            1 RES     
   28529 H6         923.4144  -763.7597  -666.2008 H6            1 RES     
   28530 H6         922.1294  -765.1600  -667.8321 H6            1 RES     
   28531 H6         920.7559  -765.2544  -666.6732 H6            1 RES     
   28532 H6         922.0019  -767.2817  -666.5425 H6            1 RES     
   28533 H6         922.0547  -766.3992  -664.9924 H6            1 RES     
   28534 H6         924.2173  -767.4662  -665.5403 H6            1 RES     
   28535 H6         924.3722  -765.6928  -665.3725 H6            1 RES     
   28536 H6         924.4775  -765.3980  -667.8235 H6            1 RES     
   28537 H6         925.7286  -766.5286  -667.2126 H6            1 RES     
   28538 H6         923.0637  -767.3237  -668.5662 H6            1 RES     
   28539 H6         924.2979  -768.4907  -667.9705 H6            1 RES     
   28540 H6         924.3487  -768.0962  -670.4394 H6            1 RES     
   28541 H6         924.6758  -766.3465  -670.1655 H6            1 RES     
   28542 H6         926.8847  -766.9808  -669.0553 H6            1 RES     
   28543 H6         926.4512  -768.7170  -669.2601 H6            1 RES     
   28544 H6         926.4876  -768.4508  -671.7426 H6            1 RES     
   28545 H6         928.0578  -768.0565  -670.9561 H6            1 RES     
   28546 H6         926.0068  -765.9805  -671.9650 H6            1 RES     
   28547 H6         927.5670  -765.6154  -671.1196 H6            1 RES     
   28548 H6         927.5669  -766.4281  -672.7300 H6            1 RES     
   28549 H6         919.9659  -763.5183  -667.5183 H6            1 RES     
   28550 H6         919.7455  -761.8878  -667.6975 H6            1 RES     
   28551 H6         918.4200  -763.4087  -665.9333 H6            1 RES     
   28552 H6         919.7820  -763.0670  -664.8225 H6            1 RES     
   28553 H6         917.8967  -761.0576  -666.3250 H6            1 RES     
   28554 H6         919.1995  -760.5742  -665.2173 H6            1 RES     
   28555 H6         918.1916  -761.5972  -663.2947 H6            1 RES     
   28556 H6         917.2818  -760.2688  -664.1090 H6            1 RES     
   28557 H6         915.7372  -761.7612  -665.1543 H6            1 RES     
   28558 H6         916.4799  -763.1924  -664.3306 H6            1 RES     
   28559 H6         916.0796  -762.1557  -662.1032 H6            1 RES     
   28560 H6         915.4210  -760.6602  -662.8490 H6            1 RES     
   28561 H6         913.6713  -762.1127  -661.9220 H6            1 RES     
   28562 H6         914.1202  -763.4408  -663.0574 H6            1 RES     
   28563 H6         913.5015  -761.9179  -664.9966 H6            1 RES     
   28564 H6         912.1399  -762.0963  -663.8381 H6            1 RES     
   28565 H6         913.1356  -760.5946  -663.8188 H6            1 RES     
   28566 C0         931.4702  -754.4620  -673.4926 C0            1 RES     
   28567 C1         930.7453  -754.6043  -672.1361 C1            1 RES     
   28568 C1         931.4835  -754.1232  -671.1023 C1            1 RES     
   28569 S2         930.7659  -754.3459  -669.6063 S2            1 RES     
   28570 C1         929.4327  -755.1486  -670.2911 C1            1 RES     
   28571 C1         929.5738  -755.2318  -671.6807 C1            1 RES     
   28572 C1         932.7214  -753.6642  -671.6019 C1            1 RES     
   28573 C1         932.7869  -753.9175  -672.9369 C1            1 RES     
   28574 C1         934.0358  -753.6221  -673.4700 C1            1 RES     
   28575 C1         934.8863  -753.1029  -672.4794 C1            1 RES     
   28576 S2         934.1193  -753.0248  -670.9664 S2            1 RES     
   28577 H3         928.8699  -755.7709  -672.2859 H3            1 RES     
   28578 H3         934.3140  -753.7769  -674.5057 H3            1 RES     
   28579 N4         938.0949  -751.1722  -672.6461 N4            1 RES     
   28580 C1         936.7635  -751.4535  -672.5344 C1            1 RES     
   28581 C1         936.2985  -752.7757  -672.6414 C1            1 RES     
   28582 C1         937.2371  -753.7896  -672.8413 C1            1 RES     
   28583 N4         936.9284  -755.1102  -672.9045 N4            1 RES     
   28584 S2         938.4153  -755.8097  -673.0825 S2            1 RES     
   28585 N4         939.4581  -754.5248  -673.0893 N4            1 RES     
   28586 C1         938.6158  -753.4735  -672.9343 C1            1 RES     
   28587 C1         939.0264  -752.1459  -672.8482 C1            1 RES     
   28588 H5         936.0598  -750.6421  -672.3700 H5            1 RES     
   28589 C0         930.9250  -753.4489  -674.5599 C0            1 RES     
   28590 C0         930.9491  -751.8738  -674.5760 C0            1 RES     
   28591 C0         930.1326  -751.4655  -675.8523 C0            1 RES     
   28592 C0         930.0476  -749.9674  -676.1700 C0            1 RES     
   28593 C0         929.1780  -749.6806  -677.4167 C0            1 RES     
   28594 C0         929.6897  -750.2785  -678.7458 C0            1 RES     
   28595 C0         931.1314  -749.8904  -679.1184 C0            1 RES     
   28596 C0         931.3409  -748.3687  -679.2134 C0            1 RES     
   28597 C0         932.7929  -747.9826  -679.5301 C0            1 RES     
   28598 C0         933.2386  -748.4069  -680.9397 C0            1 RES     
   28599 C0         934.6526  -747.9155  -681.2881 C0            1 RES     
   28600 C0         935.7416  -748.5518  -680.4235 C0            1 RES     
   28601 C0         930.4917  -751.0810  -673.3082 C0            1 RES     
   28602 C0         929.0069  -751.1803  -672.8414 C0            1 RES     
   28603 C0         928.9720  -751.7305  -671.4123 C0            1 RES     
   28604 C0         927.6340  -752.2196  -670.8651 C0            1 RES     
   28605 C0         926.6759  -751.1493  -670.3633 C0            1 RES     
   28606 C0         925.4210  -751.8613  -669.8159 C0            1 RES     
   28607 C0         924.4360  -750.9370  -669.0965 C0            1 RES     
   28608 C0         925.0008  -750.3987  -667.7802 C0            1 RES     
   28609 H6         929.9033  -753.6913  -674.7053 H6            1 RES     
   28610 H6         931.4670  -753.7191  -675.4942 H6            1 RES     
   28611 H6         932.0104  -751.5741  -674.7258 H6            1 RES     
   28612 H6         929.0898  -751.8393  -675.7554 H6            1 RES     
   28613 H6         930.5919  -751.9762  -676.7256 H6            1 RES     
   28614 H6         931.0656  -749.5464  -676.2975 H6            1 RES     
   28615 H6         929.5567  -749.4426  -675.3256 H6            1 RES     
   28616 H6         929.0893  -748.5803  -677.5296 H6            1 RES     
   28617 H6         928.1480  -750.0629  -677.2416 H6            1 RES     
   28618 H6         929.0048  -749.9485  -679.5585 H6            1 RES     
   28619 H6         929.6291  -751.3871  -678.7055 H6            1 RES     
   28620 H6         931.8303  -750.3128  -678.3659 H6            1 RES     
   28621 H6         931.3586  -750.3653  -680.0954 H6            1 RES     
   28622 H6         931.1077  -747.9130  -678.2296 H6            1 RES     
   28623 H6         930.6558  -747.9315  -679.9724 H6            1 RES     
   28624 H6         932.8677  -746.8754  -679.4624 H6            1 RES     
   28625 H6         933.4533  -748.4241  -678.7545 H6            1 RES     
   28626 H6         933.2060  -749.5105  -681.0518 H6            1 RES     
   28627 H6         932.5344  -747.9587  -681.6741 H6            1 RES     
   28628 H6         934.7010  -746.8086  -681.1943 H6            1 RES     
   28629 H6         934.8595  -748.1815  -682.3472 H6            1 RES     
   28630 H6         935.6213  -748.2789  -679.3557 H6            1 RES     
   28631 H6         935.7151  -749.6575  -680.5267 H6            1 RES     
   28632 H6         936.7356  -748.1877  -680.7578 H6            1 RES     
   28633 H6         930.6971  -750.0049  -673.4931 H6            1 RES     
   28634 H6         931.1915  -751.3191  -672.4787 H6            1 RES     
   28635 H6         928.5256  -750.1766  -672.8390 H6            1 RES     
   28636 H6         928.4345  -751.8363  -673.5283 H6            1 RES     
   28637 H6         929.4876  -751.0624  -670.6907 H6            1 RES     
   28638 H6         929.5458  -752.6301  -671.4823 H6            1 RES     
   28639 H6         927.1545  -752.8578  -671.6114 H6            1 RES     
   28640 H6         927.8712  -752.8632  -669.9875 H6            1 RES     
   28641 H6         927.1987  -750.5929  -669.5567 H6            1 RES     
   28642 H6         926.3957  -750.4429  -671.1730 H6            1 RES     
   28643 H6         924.8993  -752.3450  -670.6728 H6            1 RES     
   28644 H6         925.7100  -752.6660  -669.1020 H6            1 RES     
   28645 H6         923.5313  -751.5346  -668.8490 H6            1 RES     
   28646 H6         924.1341  -750.1019  -669.7632 H6            1 RES     
   28647 H6         925.8872  -749.7564  -667.9505 H6            1 RES     
   28648 H6         924.2274  -749.7931  -667.2656 H6            1 RES     
   28649 H6         925.2865  -751.2426  -667.1132 H6            1 RES     
   28650 C0         931.5703  -755.9321  -674.0621 C0            1 RES     
   28651 C0         930.8049  -756.4854  -675.3482 C0            1 RES     
   28652 C0         930.7631  -758.0440  -675.2015 C0            1 RES     
   28653 C0         930.3072  -758.8192  -676.4542 C0            1 RES     
   28654 C0         930.2582  -760.3447  -676.2576 C0            1 RES     
   28655 C0         931.5932  -761.0139  -675.8847 C0            1 RES     
   28656 C0         932.7631  -760.7137  -676.8364 C0            1 RES     
   28657 C0         932.4807  -761.1074  -678.2970 C0            1 RES     
   28658 C0         933.6575  -760.7962  -679.2360 C0            1 RES     
   28659 C0         934.9004  -761.6557  -678.9435 C0            1 RES     
   28660 C0         936.0339  -761.4365  -679.9576 C0            1 RES     
   28661 C0         936.6257  -760.0279  -679.9060 C0            1 RES     
   28662 C0         929.4301  -755.9257  -675.9081 C0            1 RES     
   28663 C0         928.0944  -756.0945  -675.1300 C0            1 RES     
   28664 C0         927.6152  -754.7765  -674.4955 C0            1 RES     
   28665 C0         926.3493  -754.8450  -673.6572 C0            1 RES     
   28666 C0         925.0347  -755.0190  -674.4046 C0            1 RES     
   28667 C0         923.9029  -754.8836  -673.3655 C0            1 RES     
   28668 C0         922.4932  -754.8779  -673.9596 C0            1 RES     
   28669 C0         922.2194  -753.6254  -674.7935 C0            1 RES     
   28670 H6         931.4026  -756.6391  -673.2164 H6            1 RES     
   28671 H6         932.6446  -756.1289  -674.2792 H6            1 RES     
   28672 H6         931.4994  -756.2511  -676.1878 H6            1 RES     
   28673 H6         930.0920  -758.3112  -674.3568 H6            1 RES     
   28674 H6         931.7882  -758.3881  -674.9454 H6            1 RES     
   28675 H6         930.9709  -758.5629  -677.3064 H6            1 RES     
   28676 H6         929.2691  -758.5419  -676.7217 H6            1 RES     
   28677 H6         929.8810  -760.7949  -677.2006 H6            1 RES     
   28678 H6         929.5154  -760.5879  -675.4663 H6            1 RES     
   28679 H6         931.4247  -762.1125  -675.8486 H6            1 RES     
   28680 H6         931.8900  -760.6953  -674.8627 H6            1 RES     
   28681 H6         933.0110  -759.6317  -676.7907 H6            1 RES     
   28682 H6         933.6377  -761.2780  -676.4533 H6            1 RES     
   28683 H6         931.6137  -760.5205  -678.6658 H6            1 RES     
   28684 H6         932.2231  -762.1866  -678.3623 H6            1 RES     
   28685 H6         933.3246  -761.0109  -680.2748 H6            1 RES     
   28686 H6         933.8969  -759.7140  -679.1641 H6            1 RES     
   28687 H6         935.2927  -761.4550  -677.9252 H6            1 RES     
   28688 H6         934.6013  -762.7252  -678.9989 H6            1 RES     
   28689 H6         935.6669  -761.6502  -680.9849 H6            1 RES     
   28690 H6         936.8474  -762.1568  -679.7242 H6            1 RES     
   28691 H6         935.8723  -759.2633  -680.1831 H6            1 RES     
   28692 H6         937.0142  -759.8117  -678.8880 H6            1 RES     
   28693 H6         937.4659  -759.9570  -680.6283 H6            1 RES     
   28694 H6         929.2801  -756.4606  -676.8638 H6            1 RES     
   28695 H6         929.5149  -754.9094  -676.3366 H6            1 RES     
   28696 H6         927.3024  -756.3476  -675.8688 H6            1 RES     
   28697 H6         928.1582  -756.9355  -674.4101 H6            1 RES     
   28698 H6         927.5098  -753.9894  -675.2763 H6            1 RES     
   28699 H6         928.3454  -754.4322  -673.7717 H6            1 RES     
   28700 H6         926.4645  -755.6114  -672.8602 H6            1 RES     
   28701 H6         926.2662  -753.8490  -673.1919 H6            1 RES     
   28702 H6         924.9668  -754.2109  -675.1633 H6            1 RES     
   28703 H6         924.9895  -756.0041  -674.9139 H6            1 RES     
   28704 H6         923.9878  -755.7321  -672.6514 H6            1 RES     
   28705 H6         924.0238  -753.9411  -672.7832 H6            1 RES     
   28706 H6         921.7763  -754.8753  -673.1093 H6            1 RES     
   28707 H6         922.3283  -755.7944  -674.5602 H6            1 RES     
   28708 H6         922.8743  -753.5817  -675.6863 H6            1 RES     
   28709 H6         921.1647  -753.6375  -675.1368 H6            1 RES     
   28710 H6         922.3787  -752.7117  -674.1797 H6            1 RES     
   28711 C0         943.9009  -750.7864  -674.8406 C0            1 RES     
   28712 C1         942.6900  -751.1128  -673.9390 C1            1 RES     
   28713 C1         943.0499  -751.3250  -672.6464 C1            1 RES     
   28714 S2         941.7730  -751.7717  -671.6603 S2            1 RES     
   28715 C1         940.6737  -751.7400  -672.9570 C1            1 RES     
   28716 C1         941.3264  -751.3831  -674.1420 C1            1 RES     
   28717 C1         944.4527  -751.2093  -672.5398 C1            1 RES     
   28718 C1         944.9790  -750.9906  -673.7752 C1            1 RES     
   28719 C1         946.3685  -751.0085  -673.7683 C1            1 RES     
   28720 C1         946.8541  -751.2142  -672.4659 C1            1 RES     
   28721 S2         945.5930  -751.3888  -671.3423 S2            1 RES     
   28722 H3         940.8161  -751.3816  -675.0864 H3            1 RES     
   28723 H3         946.9889  -750.8861  -674.6481 H3            1 RES     
   28724 N4         950.2116  -750.6641  -670.8927 N4            1 RES     
   28725 C1         948.9169  -750.4581  -671.2741 C1            1 RES     
   28726 C1         948.2509  -751.3929  -672.0854 C1            1 RES     
   28727 C1         948.9426  -752.5434  -672.4683 C1            1 RES     
   28728 N4         948.3992  -753.5493  -673.2007 N4            1 RES     
   28729 S2         949.6415  -754.6368  -673.2787 S2            1 RES     
   28730 N4         950.8597  -753.9065  -672.4296 N4            1 RES     
   28731 C1         950.2799  -752.7434  -672.0429 C1            1 RES     
   28732 C1         950.9068  -751.7767  -671.2611 C1            1 RES     
   28733 H5         948.4040  -749.5561  -670.9515 H5            1 RES     
   28734 C0         944.0574  -749.3424  -675.4351 C0            1 RES     
   28735 C0         944.4342  -747.9851  -674.7298 C0            1 RES     
   28736 C0         944.2966  -746.8919  -675.8472 C0            1 RES     
   28737 C0         944.6772  -745.4568  -675.4624 C0            1 RES     
   28738 C0         944.4537  -744.4594  -676.6235 C0            1 RES     
   28739 C0         945.2995  -744.7038  -677.8926 C0            1 RES     
   28740 C0         946.8187  -744.7680  -677.6563 C0            1 RES     
   28741 C0         947.3802  -743.4973  -676.9939 C0            1 RES     
   28742 C0         948.8862  -743.5862  -676.7083 C0            1 RES     
   28743 C0         949.7432  -743.6287  -677.9847 C0            1 RES     
   28744 C0         951.2511  -743.6017  -677.6884 C0            1 RES     
   28745 C0         951.7430  -744.8493  -676.9537 C0            1 RES     
   28746 C0         943.7041  -747.5710  -673.4105 C0            1 RES     
   28747 C0         942.1734  -747.2742  -673.4471 C0            1 RES     
   28748 C0         941.4596  -748.2308  -672.4871 C0            1 RES     
   28749 C0         939.9421  -748.3524  -672.5930 C0            1 RES     
   28750 C0         939.1269  -747.2503  -671.9324 C0            1 RES     
   28751 C0         937.6342  -747.5949  -672.1172 C0            1 RES     
   28752 C0         936.6774  -746.6842  -671.3443 C0            1 RES     
   28753 C0         936.7843  -746.8813  -669.8306 C0            1 RES     
   28754 H6         943.1486  -749.1273  -675.9366 H6            1 RES     
   28755 H6         944.8480  -749.4514  -676.2114 H6            1 RES     
   28756 H6         945.5068  -748.0632  -674.4434 H6            1 RES     
   28757 H6         943.2448  -746.8663  -676.2072 H6            1 RES     
   28758 H6         944.9361  -747.1994  -676.7020 H6            1 RES     
   28759 H6         945.7293  -745.4220  -675.1136 H6            1 RES     
   28760 H6         944.0240  -745.1156  -674.6341 H6            1 RES     
   28761 H6         944.6625  -743.4374  -676.2451 H6            1 RES     
   28762 H6         943.3807  -744.4729  -676.9174 H6            1 RES     
   28763 H6         945.0801  -743.8868  -678.6157 H6            1 RES     
   28764 H6         944.9840  -745.6532  -678.3757 H6            1 RES     
   28765 H6         947.0538  -745.6491  -677.0227 H6            1 RES     
   28766 H6         947.2997  -744.9236  -678.6443 H6            1 RES     
   28767 H6         946.8869  -743.3584  -676.0103 H6            1 RES     
   28768 H6         947.1632  -742.6062  -677.6228 H6            1 RES     
   28769 H6         949.1717  -742.6806  -676.1299 H6            1 RES     
   28770 H6         949.0736  -744.4778  -676.0736 H6            1 RES     
   28771 H6         949.5135  -744.5313  -678.5881 H6            1 RES     
   28772 H6         949.5020  -742.7295  -678.5926 H6            1 RES     
   28773 H6         951.5027  -742.6957  -677.0950 H6            1 RES     
   28774 H6         951.7924  -743.5411  -678.6572 H6            1 RES     
   28775 H6         951.2772  -744.9387  -675.9516 H6            1 RES     
   28776 H6         951.5149  -745.7591  -677.5488 H6            1 RES     
   28777 H6         952.8422  -744.7833  -676.8131 H6            1 RES     
   28778 H6         944.1984  -746.6527  -673.0274 H6            1 RES     
   28779 H6         943.9506  -748.3199  -672.6276 H6            1 RES     
   28780 H6         941.9651  -746.2316  -673.1172 H6            1 RES     
   28781 H6         941.7866  -747.3936  -674.4795 H6            1 RES     
   28782 H6         941.7848  -748.0921  -671.4345 H6            1 RES     
   28783 H6         941.8000  -749.1939  -672.8032 H6            1 RES     
   28784 H6         939.6655  -748.4699  -673.6436 H6            1 RES     
   28785 H6         939.6669  -749.2986  -672.0739 H6            1 RES     
   28786 H6         939.4005  -747.2401  -670.8560 H6            1 RES     
   28787 H6         939.3510  -746.2574  -672.3765 H6            1 RES     
   28788 H6         937.3975  -747.5253  -673.2032 H6            1 RES     
   28789 H6         937.4338  -748.6427  -671.7969 H6            1 RES     
   28790 H6         935.6401  -746.9547  -671.6410 H6            1 RES     
   28791 H6         936.8545  -745.6218  -671.6139 H6            1 RES     
   28792 H6         937.7848  -746.5923  -669.4527 H6            1 RES     
   28793 H6         936.0262  -746.2528  -669.3209 H6            1 RES     
   28794 H6         936.5907  -747.9456  -669.5689 H6            1 RES     
   28795 C0         943.8880  -751.8961  -675.9648 C0            1 RES     
   28796 C0         943.5868  -751.6490  -677.5122 C0            1 RES     
   28797 C0         943.1466  -753.0308  -678.1032 C0            1 RES     
   28798 C0         943.0593  -753.1003  -679.6413 C0            1 RES     
   28799 C0         942.6005  -754.4681  -680.1767 C0            1 RES     
   28800 C0         943.4977  -755.6642  -679.8114 C0            1 RES     
   28801 C0         944.9820  -755.5044  -680.1799 C0            1 RES     
   28802 C0         945.2158  -755.2360  -681.6770 C0            1 RES     
   28803 C0         946.7037  -755.0737  -682.0278 C0            1 RES     
   28804 C0         947.5081  -756.3726  -681.8412 C0            1 RES     
   28805 C0         948.9665  -756.2480  -682.3091 C0            1 RES     
   28806 C0         949.7866  -755.2657  -681.4726 C0            1 RES     
   28807 C0         942.7031  -750.4682  -678.0968 C0            1 RES     
   28808 C0         941.1681  -750.3937  -677.8604 C0            1 RES     
   28809 C0         940.7832  -749.2990  -676.8491 C0            1 RES     
   28810 C0         939.3091  -749.1842  -676.4977 C0            1 RES     
   28811 C0         938.3902  -748.5945  -677.5583 C0            1 RES     
   28812 C0         937.0022  -748.4222  -676.9083 C0            1 RES     
   28813 C0         935.9780  -747.6954  -677.7819 C0            1 RES     
   28814 C0         936.3383  -746.2248  -677.9978 C0            1 RES     
   28815 H6         943.2498  -752.7378  -675.6079 H6            1 RES     
   28816 H6         944.8887  -752.3846  -675.9571 H6            1 RES     
   28817 H6         944.5881  -751.4107  -677.9396 H6            1 RES     
   28818 H6         942.1568  -753.3077  -677.6802 H6            1 RES     
   28819 H6         943.8850  -753.7921  -677.7716 H6            1 RES     
   28820 H6         944.0430  -752.8274  -680.0775 H6            1 RES     
   28821 H6         942.2990  -752.3880  -680.0162 H6            1 RES     
   28822 H6         942.5340  -754.3928  -681.2831 H6            1 RES     
   28823 H6         941.5730  -754.6796  -679.8071 H6            1 RES     
   28824 H6         943.0897  -756.5639  -680.3219 H6            1 RES     
   28825 H6         943.4322  -755.8511  -678.7183 H6            1 RES     
   28826 H6         945.4252  -754.6763  -679.5864 H6            1 RES     
   28827 H6         945.4875  -756.4447  -679.8792 H6            1 RES     
   28828 H6         944.7165  -754.2839  -681.9533 H6            1 RES     
   28829 H6         944.7724  -756.0514  -682.2885 H6            1 RES     
   28830 H6         946.7666  -754.7780  -683.0977 H6            1 RES     
   28831 H6         947.1290  -754.2514  -681.4141 H6            1 RES     
   28832 H6         947.5032  -756.6951  -680.7796 H6            1 RES     
   28833 H6         947.0259  -757.1678  -682.4508 H6            1 RES     
   28834 H6         948.9946  -755.9429  -683.3777 H6            1 RES     
   28835 H6         949.4415  -757.2489  -682.2226 H6            1 RES     
   28836 H6         949.3922  -754.2334  -681.5605 H6            1 RES     
   28837 H6         949.7819  -755.5733  -680.4052 H6            1 RES     
   28838 H6         950.8359  -755.2626  -681.8357 H6            1 RES     
   28839 H6         942.8257  -750.5449  -679.1928 H6            1 RES     
   28840 H6         943.1722  -749.4732  -677.9801 H6            1 RES     
   28841 H6         940.6948  -750.0667  -678.8124 H6            1 RES     
   28842 H6         940.7562  -751.3924  -677.6106 H6            1 RES     
   28843 H6         941.1699  -748.3105  -677.1861 H6            1 RES     
   28844 H6         941.2274  -749.5193  -675.8848 H6            1 RES     
   28845 H6         938.9294  -750.1640  -676.1348 H6            1 RES     
   28846 H6         939.2730  -748.4543  -675.6722 H6            1 RES     
   28847 H6         938.8064  -747.6092  -677.8572 H6            1 RES     
   28848 H6         938.3314  -749.2529  -678.4499 H6            1 RES     
   28849 H6         936.6097  -749.4332  -676.6612 H6            1 RES     
   28850 H6         937.0904  -747.8536  -675.9538 H6            1 RES     
   28851 H6         935.0050  -747.7245  -677.2441 H6            1 RES     
   28852 H6         935.8634  -748.2190  -678.7517 H6            1 RES     
   28853 H6         937.2829  -746.1183  -678.5673 H6            1 RES     
   28854 H6         935.5288  -745.7301  -678.5727 H6            1 RES     
   28855 H6         936.4421  -745.7061  -677.0196 H6            1 RES     
   28856 C0         956.3413  -751.6992  -671.0655 C0            1 RES     
   28857 C1         954.8342  -751.8493  -670.7623 C1            1 RES     
   28858 C1         954.6013  -752.6114  -669.6622 C1            1 RES     
   28859 S2         952.9755  -752.8704  -669.3588 S2            1 RES     
   28860 C1         952.5100  -751.9919  -670.7381 C1            1 RES     
   28861 C1         953.6367  -751.5130  -671.4154 C1            1 RES     
   28862 C1         955.8375  -753.0622  -669.1510 C1            1 RES     
   28863 C1         956.8405  -752.6389  -669.9669 C1            1 RES     
   28864 C1         958.0743  -753.1659  -669.6046 C1            1 RES     
   28865 C1         957.9512  -753.9717  -668.4601 C1            1 RES     
   28866 S2         956.3458  -754.0491  -667.9123 S2            1 RES     
   28867 H3         953.5520  -750.9983  -672.3536 H3            1 RES     
   28868 H3         959.0004  -752.9832  -670.1363 H3            1 RES     
   28869 N4         960.4531  -755.2706  -665.9896 N4            1 RES     
   28870 C1         959.4926  -754.4864  -666.5611 C1            1 RES     
   28871 C1         959.0092  -754.7694  -667.8503 C1            1 RES     
   28872 C1         959.5220  -755.8843  -668.5157 C1            1 RES     
   28873 N4         959.1015  -756.3010  -669.7376 N4            1 RES     
   28874 S2         960.0002  -757.6685  -669.9701 S2            1 RES     
   28875 N4         960.9163  -757.7776  -668.5964 N4            1 RES     
   28876 C1         960.5047  -756.6940  -667.8927 C1            1 RES     
   28877 C1         960.9717  -756.3590  -666.6245 C1            1 RES     
   28878 H5         959.1079  -753.6309  -666.0127 H5            1 RES     
   28879 C0         957.0342  -750.3037  -670.8778 C0            1 RES     
   28880 C0         957.3946  -749.5130  -669.5637 C0            1 RES     
   28881 C0         957.9523  -748.1319  -670.0576 C0            1 RES     
   28882 C0         958.4591  -747.1647  -668.9806 C0            1 RES     
   28883 C0         958.9361  -745.8197  -669.5776 C0            1 RES     
   28884 C0         960.1350  -745.9019  -670.5481 C0            1 RES     
   28885 C0         961.3844  -746.5956  -669.9771 C0            1 RES     
   28886 C0         961.9072  -745.9327  -668.6903 C0            1 RES     
   28887 C0         963.1199  -746.6600  -668.0920 C0            1 RES     
   28888 C0         964.3764  -746.5693  -668.9743 C0            1 RES     
   28889 C0         965.6122  -747.2009  -668.3140 C0            1 RES     
   28890 C0         965.4867  -748.7129  -668.1231 C0            1 RES     
   28891 C0         956.3169  -749.3440  -668.4434 C0            1 RES     
   28892 C0         955.0305  -748.5141  -668.7419 C0            1 RES     
   28893 C0         953.8047  -749.4109  -668.5438 C0            1 RES     
   28894 C0         952.4646  -748.9234  -669.0871 C0            1 RES     
   28895 C0         951.7218  -747.9011  -668.2393 C0            1 RES     
   28896 C0         950.3854  -747.5880  -668.9444 C0            1 RES     
   28897 C0         949.4297  -746.7181  -668.1246 C0            1 RES     
   28898 C0         948.8876  -747.4508  -666.8955 C0            1 RES     
   28899 H6         956.4674  -749.6114  -671.4464 H6            1 RES     
   28900 H6         958.0205  -750.4190  -671.3814 H6            1 RES     
   28901 H6         958.2225  -750.0725  -669.0736 H6            1 RES     
   28902 H6         957.1603  -747.6000  -670.6288 H6            1 RES     
   28903 H6         958.7906  -748.3363  -670.7576 H6            1 RES     
   28904 H6         959.2692  -747.6407  -668.3915 H6            1 RES     
   28905 H6         957.6266  -746.9170  -668.2916 H6            1 RES     
   28906 H6         959.2006  -745.1442  -668.7380 H6            1 RES     
   28907 H6         958.0906  -745.3367  -670.1157 H6            1 RES     
   28908 H6         960.4039  -744.8658  -670.8523 H6            1 RES     
   28909 H6         959.8326  -746.4394  -671.4721 H6            1 RES     
   28910 H6         961.1504  -747.6620  -669.7740 H6            1 RES     
   28911 H6         962.1669  -746.5647  -670.7634 H6            1 RES     
   28912 H6         961.1117  -745.9721  -667.9185 H6            1 RES     
   28913 H6         962.1577  -744.8660  -668.8801 H6            1 RES     
   28914 H6         963.3485  -746.1822  -667.1144 H6            1 RES     
   28915 H6         962.8406  -747.7182  -667.9052 H6            1 RES     
   28916 H6         964.2081  -747.0563  -669.9572 H6            1 RES     
   28917 H6         964.5988  -745.4940  -669.1490 H6            1 RES     
   28918 H6         965.8047  -746.7156  -667.3323 H6            1 RES     
   28919 H6         966.4890  -747.0119  -668.9703 H6            1 RES     
   28920 H6         964.6578  -748.9659  -667.4317 H6            1 RES     
   28921 H6         965.3150  -749.2095  -669.1018 H6            1 RES     
   28922 H6         966.4274  -749.1072  -667.6850 H6            1 RES     
   28923 H6         956.8113  -748.8643  -667.5717 H6            1 RES     
   28924 H6         956.0638  -750.3519  -668.0503 H6            1 RES     
   28925 H6         954.9461  -747.6513  -668.0437 H6            1 RES     
   28926 H6         955.0638  -748.1187  -669.7774 H6            1 RES     
   28927 H6         953.7127  -749.7741  -667.4985 H6            1 RES     
   28928 H6         954.0192  -750.2583  -669.1596 H6            1 RES     
   28929 H6         952.6038  -748.5603  -670.1084 H6            1 RES     
   28930 H6         951.8056  -749.8194  -669.1450 H6            1 RES     
   28931 H6         951.5459  -748.3647  -667.2455 H6            1 RES     
   28932 H6         952.3161  -746.9720  -668.1098 H6            1 RES     
   28933 H6         950.6157  -747.0657  -669.9006 H6            1 RES     
   28934 H6         949.8487  -748.5305  -669.1980 H6            1 RES     
   28935 H6         948.5602  -746.4691  -668.7720 H6            1 RES     
   28936 H6         949.9290  -745.7719  -667.8273 H6            1 RES     
   28937 H6         949.6964  -747.6984  -666.1802 H6            1 RES     
   28938 H6         948.1500  -746.8064  -666.3756 H6            1 RES     
   28939 H6         948.3763  -748.3898  -667.2047 H6            1 RES     
   28940 C0         956.5251  -752.2644  -672.5291 C0            1 RES     
   28941 C0         956.9180  -751.4056  -673.8152 C0            1 RES     
   28942 C0         956.4508  -752.2336  -675.0596 C0            1 RES     
   28943 C0         956.9610  -751.7299  -676.4249 C0            1 RES     
   28944 C0         956.4585  -752.5583  -677.6205 C0            1 RES     
   28945 C0         956.8511  -754.0465  -677.6149 C0            1 RES     
   28946 C0         958.3562  -754.3249  -677.4672 C0            1 RES     
   28947 C0         959.2118  -753.6610  -678.5605 C0            1 RES     
   28948 C0         960.7137  -753.9446  -678.3958 C0            1 RES     
   28949 C0         961.0708  -755.4259  -678.6134 C0            1 RES     
   28950 C0         962.5839  -755.6907  -678.5731 C0            1 RES     
   28951 C0         963.2055  -755.4319  -677.2006 C0            1 RES     
   28952 C0         956.6202  -749.8597  -674.0112 C0            1 RES     
   28953 C0         955.1735  -749.3147  -674.1787 C0            1 RES     
   28954 C0         954.6757  -748.5777  -672.9224 C0            1 RES     
   28955 C0         953.2473  -748.0600  -672.9577 C0            1 RES     
   28956 C0         952.9738  -746.8472  -673.8360 C0            1 RES     
   28957 C0         951.5178  -746.4146  -673.5681 C0            1 RES     
   28958 C0         951.1073  -745.1095  -674.2526 C0            1 RES     
   28959 C0         951.8395  -743.8965  -673.6768 C0            1 RES     
   28960 H6         955.6288  -752.8811  -672.7731 H6            1 RES     
   28961 H6         957.3072  -753.0556  -672.4810 H6            1 RES     
   28962 H6         958.0324  -751.4188  -673.8090 H6            1 RES     
   28963 H6         955.3399  -752.2565  -675.0840 H6            1 RES     
   28964 H6         956.8113  -753.2764  -674.9277 H6            1 RES     
   28965 H6         958.0709  -751.7037  -676.4152 H6            1 RES     
   28966 H6         956.5873  -750.7064  -676.6216 H6            1 RES     
   28967 H6         956.8499  -752.0863  -678.5469 H6            1 RES     
   28968 H6         955.3494  -752.4923  -677.6707 H6            1 RES     
   28969 H6         956.4878  -754.4978  -678.5641 H6            1 RES     
   28970 H6         956.3223  -754.5619  -676.7849 H6            1 RES     
   28971 H6         958.7024  -753.9771  -676.4705 H6            1 RES     
   28972 H6         958.4811  -755.4263  -677.5037 H6            1 RES     
   28973 H6         959.0854  -752.5601  -678.4962 H6            1 RES     
   28974 H6         958.8752  -753.9915  -679.5670 H6            1 RES     
   28975 H6         961.2552  -753.3423  -679.1574 H6            1 RES     
   28976 H6         961.0347  -753.6023  -677.3891 H6            1 RES     
   28977 H6         960.5784  -756.0697  -677.8557 H6            1 RES     
   28978 H6         960.7034  -755.7253  -679.6192 H6            1 RES     
   28979 H6         963.0959  -755.0680  -679.3386 H6            1 RES     
   28980 H6         962.7523  -756.7593  -678.8276 H6            1 RES     
   28981 H6         963.1165  -754.3652  -676.9120 H6            1 RES     
   28982 H6         962.7143  -756.0650  -676.4312 H6            1 RES     
   28983 H6         964.2854  -755.6880  -677.2334 H6            1 RES     
   28984 H6         957.1427  -749.5919  -674.9479 H6            1 RES     
   28985 H6         957.2136  -749.2123  -673.3384 H6            1 RES     
   28986 H6         955.1971  -748.5297  -674.9663 H6            1 RES     
   28987 H6         954.4866  -750.1129  -674.5256 H6            1 RES     
   28988 H6         955.3722  -747.7489  -672.6610 H6            1 RES     
   28989 H6         954.6451  -749.2641  -672.0836 H6            1 RES     
   28990 H6         952.5488  -748.8928  -673.1912 H6            1 RES     
   28991 H6         953.0529  -747.7016  -671.9333 H6            1 RES     
   28992 H6         953.6809  -746.0452  -673.5358 H6            1 RES     
   28993 H6         953.1253  -747.0861  -674.9092 H6            1 RES     
   28994 H6         950.8465  -747.2296  -673.9178 H6            1 RES     
   28995 H6         951.3480  -746.2857  -672.4742 H6            1 RES     
   28996 H6         950.0212  -744.9641  -674.0626 H6            1 RES     
   28997 H6         951.2695  -745.1845  -675.3461 H6            1 RES     
   28998 H6         952.9298  -743.9536  -673.8662 H6            1 RES     
   28999 H6         951.4520  -742.9738  -674.1554 H6            1 RES     
   29000 H6         951.6632  -743.8246  -672.5811 H6            1 RES     
   29001 C0         965.7637  -758.3507  -664.9969 C0            1 RES     
   29002 C1         964.2660  -758.0330  -665.2018 C1            1 RES     
   29003 C1         963.4576  -758.9864  -664.6701 C1            1 RES     
   29004 S2         961.8298  -758.7194  -664.9552 S2            1 RES     
   29005 C1         962.1500  -757.3131  -665.8555 C1            1 RES     
   29006 C1         963.5278  -757.0780  -665.9205 C1            1 RES     
   29007 C1         964.2607  -760.0055  -664.1140 C1            1 RES     
   29008 C1         965.5700  -759.7252  -664.3548 C1            1 RES     
   29009 C1         966.4125  -760.7577  -663.9607 C1            1 RES     
   29010 C1         965.6750  -761.8044  -663.3821 C1            1 RES     
   29011 S2         964.0098  -761.4725  -663.3714 S2            1 RES     
   29012 H3         963.9343  -756.2779  -666.5095 H3            1 RES     
   29013 H3         967.4884  -760.7553  -664.0883 H3            1 RES     
   29014 N4         966.6514  -764.6972  -661.2076 N4            1 RES     
   29015 C1         966.1919  -763.4703  -661.5919 C1            1 RES     
   29016 C1         966.2036  -763.0919  -662.9456 C1            1 RES     
   29017 C1         966.6755  -764.0129  -663.8826 C1            1 RES     
   29018 N4         966.6871  -763.7963  -665.2229 N4            1 RES     
   29019 S2         967.2777  -765.2264  -665.8041 S2            1 RES     
   29020 N4         967.5324  -766.1313  -664.4422 N4            1 RES     
   29021 C1         967.1288  -765.2878  -663.4602 C1            1 RES     
   29022 C1         967.1224  -765.6079  -662.1051 C1            1 RES     
   29023 H5         965.8229  -762.7800  -660.8384 H5            1 RES     
   29024 C0         966.6178  -757.4639  -664.0239 C0            1 RES     
   29025 C0         966.5991  -757.3672  -662.4516 C0            1 RES     
   29026 C0         967.5968  -756.2078  -662.1014 C0            1 RES     
   29027 C0         967.8409  -755.9303  -660.6129 C0            1 RES     
   29028 C0         968.7989  -754.7368  -660.3881 C0            1 RES     
   29029 C0         970.2318  -754.9115  -660.9379 C0            1 RES     
   29030 C0         970.9694  -756.1659  -660.4373 C0            1 RES     
   29031 C0         971.0781  -756.2297  -658.9034 C0            1 RES     
   29032 C0         971.7648  -757.5091  -658.4044 C0            1 RES     
   29033 C0         973.2528  -757.5860  -658.7858 C0            1 RES     
   29034 C0         973.9570  -758.8127  -658.1844 C0            1 RES     
   29035 C0         973.4350  -760.1388  -658.7387 C0            1 RES     
   29036 C0         965.2348  -757.2138  -661.7030 C0            1 RES     
   29037 C0         964.3874  -755.9224  -661.9194 C0            1 RES     
   29038 C0         963.0167  -756.3165  -662.4778 C0            1 RES     
   29039 C0         962.1416  -755.2166  -663.0720 C0            1 RES     
   29040 C0         961.3723  -754.3545  -662.0817 C0            1 RES     
   29041 C0         960.5253  -753.3506  -662.8916 C0            1 RES     
   29042 C0         959.5432  -752.5325  -662.0500 C0            1 RES     
   29043 C0         958.4146  -753.3918  -661.4762 C0            1 RES     
   29044 H6         966.4883  -756.4616  -664.3440 H6            1 RES     
   29045 H6         967.6703  -757.7508  -664.2465 H6            1 RES     
   29046 H6         967.0219  -758.3233  -662.0697 H6            1 RES     
   29047 H6         967.2317  -755.2606  -662.5554 H6            1 RES     
   29048 H6         968.5745  -756.4494  -662.5706 H6            1 RES     
   29049 H6         968.2275  -756.8419  -660.1136 H6            1 RES     
   29050 H6         966.8822  -755.6495  -660.1319 H6            1 RES     
   29051 H6         968.8552  -754.5404  -659.2974 H6            1 RES     
   29052 H6         968.3623  -753.8237  -660.8500 H6            1 RES     
   29053 H6         970.8207  -754.0097  -660.6579 H6            1 RES     
   29054 H6         970.2053  -754.9455  -662.0480 H6            1 RES     
   29055 H6         970.4446  -757.0715  -660.8080 H6            1 RES     
   29056 H6         971.9834  -756.1540  -660.8882 H6            1 RES     
   29057 H6         970.0564  -756.2390  -658.4721 H6            1 RES     
   29058 H6         971.6125  -755.3343  -658.5169 H6            1 RES     
   29059 H6         971.6912  -757.5181  -657.2950 H6            1 RES     
   29060 H6         971.2077  -758.3855  -658.7972 H6            1 RES     
   29061 H6         973.3803  -757.6051  -659.8879 H6            1 RES     
   29062 H6         973.7581  -756.6782  -658.3898 H6            1 RES     
   29063 H6         973.8512  -758.8034  -657.0776 H6            1 RES     
   29064 H6         975.0391  -758.7437  -658.4283 H6            1 RES     
   29065 H6         972.3677  -760.2928  -658.4813 H6            1 RES     
   29066 H6         973.5558  -760.1665  -659.8426 H6            1 RES     
   29067 H6         974.0156  -760.9756  -658.2969 H6            1 RES     
   29068 H6         965.4405  -757.2819  -660.6132 H6            1 RES     
   29069 H6         964.6314  -758.1277  -661.8902 H6            1 RES     
   29070 H6         964.2293  -755.3876  -660.9561 H6            1 RES     
   29071 H6         964.9111  -755.2349  -662.6144 H6            1 RES     
   29072 H6         962.4439  -756.9580  -661.7754 H6            1 RES     
   29073 H6         963.2621  -756.9142  -663.3298 H6            1 RES     
   29074 H6         962.7470  -754.6008  -663.7416 H6            1 RES     
   29075 H6         961.3774  -755.7291  -663.6996 H6            1 RES     
   29076 H6         960.7226  -755.0341  -661.4905 H6            1 RES     
   29077 H6         962.0579  -753.8143  -661.3951 H6            1 RES     
   29078 H6         961.2218  -752.6532  -663.4100 H6            1 RES     
   29079 H6         959.9368  -753.8804  -663.6750 H6            1 RES     
   29080 H6         959.0762  -751.7750  -662.7173 H6            1 RES     
   29081 H6         960.0818  -752.0008  -661.2376 H6            1 RES     
   29082 H6         958.8012  -754.1493  -660.7662 H6            1 RES     
   29083 H6         957.6949  -752.7446  -660.9350 H6            1 RES     
   29084 H6         957.8714  -753.9086  -662.2987 H6            1 RES     
   29085 C0         966.3768  -758.4002  -666.4520 C0            1 RES     
   29086 C0         967.4225  -757.3576  -667.0566 C0            1 RES     
   29087 C0         967.3103  -757.4714  -668.6144 C0            1 RES     
   29088 C0         968.4130  -756.7512  -669.4164 C0            1 RES     
   29089 C0         968.2500  -756.8693  -670.9420 C0            1 RES     
   29090 C0         968.2685  -758.3007  -671.5075 C0            1 RES     
   29091 C0         969.4926  -759.1436  -671.1127 C0            1 RES     
   29092 C0         970.8325  -758.5055  -671.5198 C0            1 RES     
   29093 C0         972.0458  -759.3577  -671.1137 C0            1 RES     
   29094 C0         972.1217  -760.6929  -671.8756 C0            1 RES     
   29095 C0         973.3981  -761.4899  -671.5641 C0            1 RES     
   29096 C0         973.4717  -761.9687  -670.1141 C0            1 RES     
   29097 C0         967.5760  -755.8453  -666.6023 C0            1 RES     
   29098 C0         966.4710  -754.7866  -666.8781 C0            1 RES     
   29099 C0         965.6969  -754.4020  -665.6044 C0            1 RES     
   29100 C0         964.5503  -753.4192  -665.7750 C0            1 RES     
   29101 C0         964.9195  -751.9676  -666.0467 C0            1 RES     
   29102 C0         963.6104  -751.1531  -666.0047 C0            1 RES     
   29103 C0         963.8017  -749.6387  -666.1054 C0            1 RES     
   29104 C0         964.4982  -749.0581  -664.8737 C0            1 RES     
   29105 H6         965.5358  -758.5202  -667.1741 H6            1 RES     
   29106 H6         966.8808  -759.3869  -666.5638 H6            1 RES     
   29107 H6         968.4120  -757.7794  -666.7649 H6            1 RES     
   29108 H6         966.3230  -757.0758  -668.9370 H6            1 RES     
   29109 H6         967.3492  -758.5499  -668.8792 H6            1 RES     
   29110 H6         969.4058  -757.1385  -669.1051 H6            1 RES     
   29111 H6         968.3833  -755.6621  -669.2191 H6            1 RES     
   29112 H6         969.0675  -756.2846  -671.4154 H6            1 RES     
   29113 H6         967.2941  -756.3886  -671.2460 H6            1 RES     
   29114 H6         968.2167  -758.2292  -672.6160 H6            1 RES     
   29115 H6         967.3566  -758.8391  -671.1720 H6            1 RES     
   29116 H6         969.4875  -759.3146  -670.0150 H6            1 RES     
   29117 H6         969.3743  -760.1282  -671.6094 H6            1 RES     
   29118 H6         970.9383  -757.5304  -671.0001 H6            1 RES     
   29119 H6         970.8537  -758.3197  -672.6155 H6            1 RES     
   29120 H6         972.9614  -758.7724  -671.3483 H6            1 RES     
   29121 H6         972.0132  -759.5277  -670.0165 H6            1 RES     
   29122 H6         971.2423  -761.3307  -671.6502 H6            1 RES     
   29123 H6         972.1220  -760.4692  -672.9648 H6            1 RES     
   29124 H6         974.2934  -760.8749  -671.8005 H6            1 RES     
   29125 H6         973.4115  -762.3868  -672.2204 H6            1 RES     
   29126 H6         973.5154  -761.1144  -669.4089 H6            1 RES     
   29127 H6         972.5911  -762.6016  -669.8736 H6            1 RES     
   29128 H6         974.3919  -762.5742  -669.9747 H6            1 RES     
   29129 H6         968.4693  -755.4815  -667.1425 H6            1 RES     
   29130 H6         967.9852  -755.7361  -665.5803 H6            1 RES     
   29131 H6         966.9750  -753.8447  -667.1881 H6            1 RES     
   29132 H6         965.8170  -755.1045  -667.7152 H6            1 RES     
   29133 H6         966.3998  -754.0316  -664.8240 H6            1 RES     
   29134 H6         965.1884  -755.2737  -665.2081 H6            1 RES     
   29135 H6         963.8339  -753.8020  -666.5341 H6            1 RES     
   29136 H6         964.0542  -753.3925  -664.7908 H6            1 RES     
   29137 H6         965.6106  -751.6377  -665.2425 H6            1 RES     
   29138 H6         965.4229  -751.8585  -667.0298 H6            1 RES     
   29139 H6         962.9678  -751.4903  -666.8476 H6            1 RES     
   29140 H6         963.0582  -751.3578  -665.0585 H6            1 RES     
   29141 H6         962.7898  -749.1808  -666.1626 H6            1 RES     
   29142 H6         964.3590  -749.3848  -667.0288 H6            1 RES     
   29143 H6         965.5331  -749.4414  -664.7749 H6            1 RES     
   29144 H6         964.5444  -747.9536  -664.9658 H6            1 RES     
   29145 H6         963.9268  -749.3103  -663.9535 H6            1 RES     
   29146 C0         970.3204  -769.6467  -660.3618 C0            1 RES     
   29147 C1         969.1342  -768.7528  -660.7856 C1            1 RES     
   29148 C1         967.9926  -769.4641  -660.9758 C1            1 RES     
   29149 S2         966.7105  -768.5385  -661.5251 S2            1 RES     
   29150 C1         967.6612  -767.1297  -661.5722 C1            1 RES     
   29151 C1         968.9687  -767.4089  -661.1598 C1            1 RES     
   29152 C1         968.2656  -770.8309  -660.7521 C1            1 RES     
   29153 C1         969.5910  -770.9852  -660.4871 C1            1 RES     
   29154 C1         969.9598  -772.3221  -660.3973 C1            1 RES     
   29155 C1         968.8425  -773.1561  -660.5711 C1            1 RES     
   29156 S2         967.4251  -772.2630  -660.8487 S2            1 RES     
   29157 H3         969.7400  -766.6630  -661.1932 H3            1 RES     
   29158 H3         970.9708  -772.6700  -660.2227 H3            1 RES     
   29159 N4         968.2200  -776.7646  -659.7703 N4            1 RES     
   29160 C1         968.2324  -775.4035  -659.6634 C1            1 RES     
   29161 C1         968.8577  -774.6129  -660.6429 C1            1 RES     
   29162 C1         969.4427  -775.2574  -661.7345 C1            1 RES     
   29163 N4         970.0270  -774.6111  -662.7758 N4            1 RES     
   29164 S2         970.4654  -775.8619  -663.7632 S2            1 RES     
   29165 N4         969.9579  -777.2078  -662.9449 N4            1 RES     
   29166 C1         969.3992  -776.6708  -661.8322 C1            1 RES     
   29167 C1         968.7908  -777.4135  -660.8237 C1            1 RES     
   29168 H5         967.7602  -774.9325  -658.8056 H5            1 RES     
   29169 C0         970.8975  -769.5300  -658.9071 C0            1 RES     
   29170 C0         970.2853  -769.9834  -657.5281 C0            1 RES     
   29171 C0         971.2955  -769.4683  -656.4434 C0            1 RES     
   29172 C0         970.9908  -769.8327  -654.9850 C0            1 RES     
   29173 C0         972.0223  -769.2304  -654.0021 C0            1 RES     
   29174 C0         973.4785  -769.7162  -654.1739 C0            1 RES     
   29175 C0         973.6626  -771.2431  -654.1212 C0            1 RES     
   29176 C0         973.1437  -771.8684  -652.8142 C0            1 RES     
   29177 C0         973.2774  -773.3977  -652.7875 C0            1 RES     
   29178 C0         974.7384  -773.8774  -652.7570 C0            1 RES     
   29179 C0         974.8593  -775.4030  -652.6147 C0            1 RES     
   29180 C0         974.3171  -776.1657  -653.8240 C0            1 RES     
   29181 C0         968.8077  -769.6098  -657.1785 C0            1 RES     
   29182 C0         968.4222  -768.1089  -657.0012 C0            1 RES     
   29183 C0         967.3303  -767.7542  -658.0150 C0            1 RES     
   29184 C0         967.0259  -766.2779  -658.2534 C0            1 RES     
   29185 C0         966.1417  -765.5938  -657.2211 C0            1 RES     
   29186 C0         965.9257  -764.1362  -657.6795 C0            1 RES     
   29187 C0         964.9000  -763.3607  -656.8496 C0            1 RES     
   29188 C0         963.4769  -763.8879  -657.0454 C0            1 RES     
   29189 H6         971.1296  -768.5061  -658.7605 H6            1 RES     
   29190 H6         971.8610  -770.0865  -658.9505 H6            1 RES     
   29191 H6         970.3011  -771.0962  -657.5243 H6            1 RES     
   29192 H6         971.3576  -768.3594  -656.4976 H6            1 RES     
   29193 H6         972.2989  -769.8730  -656.6961 H6            1 RES     
   29194 H6         970.9380  -770.9345  -654.8705 H6            1 RES     
   29195 H6         970.0085  -769.4053  -654.6996 H6            1 RES     
   29196 H6         971.6881  -769.4585  -652.9689 H6            1 RES     
   29197 H6         972.0161  -768.1220  -654.0973 H6            1 RES     
   29198 H6         974.0942  -769.2498  -653.3727 H6            1 RES     
   29199 H6         973.8829  -769.3520  -655.1425 H6            1 RES     
   29200 H6         973.1389  -771.7050  -654.9846 H6            1 RES     
   29201 H6         974.7474  -771.4484  -654.2341 H6            1 RES     
   29202 H6         972.0603  -771.6513  -652.7188 H6            1 RES     
   29203 H6         973.6675  -771.4244  -651.9394 H6            1 RES     
   29204 H6         972.7744  -773.7621  -651.8653 H6            1 RES     
   29205 H6         972.7401  -773.8149  -653.6650 H6            1 RES     
   29206 H6         975.2805  -773.5596  -653.6716 H6            1 RES     
   29207 H6         975.2352  -773.4152  -651.8762 H6            1 RES     
   29208 H6         974.3327  -775.7389  -651.6948 H6            1 RES     
   29209 H6         975.9363  -775.6555  -652.5074 H6            1 RES     
   29210 H6         973.2291  -775.9967  -653.9542 H6            1 RES     
   29211 H6         974.8518  -775.8522  -654.7457 H6            1 RES     
   29212 H6         974.4766  -777.2540  -653.6737 H6            1 RES     
   29213 H6         968.5486  -770.1208  -656.2266 H6            1 RES     
   29214 H6         968.1400  -770.1135  -657.9099 H6            1 RES     
   29215 H6         968.0216  -767.9221  -655.9795 H6            1 RES     
   29216 H6         969.3147  -767.4667  -657.1451 H6            1 RES     
   29217 H6         966.4013  -768.3413  -657.8568 H6            1 RES     
   29218 H6         967.7513  -768.0658  -658.9472 H6            1 RES     
   29219 H6         967.9656  -765.7363  -658.3867 H6            1 RES     
   29220 H6         966.4764  -766.2238  -659.2207 H6            1 RES     
   29221 H6         965.1791  -766.1473  -657.1951 H6            1 RES     
   29222 H6         966.6039  -765.6157  -656.2116 H6            1 RES     
   29223 H6         966.9053  -763.6097  -657.6230 H6            1 RES     
   29224 H6         965.5903  -764.1075  -658.7412 H6            1 RES     
   29225 H6         964.9127  -762.3045  -657.1982 H6            1 RES     
   29226 H6         965.1799  -763.3797  -655.7754 H6            1 RES     
   29227 H6         963.3756  -764.9294  -656.6816 H6            1 RES     
   29228 H6         962.7655  -763.2524  -656.4801 H6            1 RES     
   29229 H6         963.2002  -763.8511  -658.1228 H6            1 RES     
   29230 C0         971.4277  -769.4110  -661.4636 C0            1 RES     
   29231 C0         972.8295  -768.6845  -661.2328 C0            1 RES     
   29232 C0         973.3153  -768.2030  -662.6415 C0            1 RES     
   29233 C0         974.7740  -767.7076  -662.7099 C0            1 RES     
   29234 C0         975.2009  -767.2224  -664.1065 C0            1 RES     
   29235 C0         975.1222  -768.2701  -665.2313 C0            1 RES     
   29236 C0         975.8733  -769.5832  -664.9550 C0            1 RES     
   29237 C0         977.3706  -769.3822  -664.6618 C0            1 RES     
   29238 C0         978.1055  -770.7033  -664.3828 C0            1 RES     
   29239 C0         978.1765  -771.6211  -665.6164 C0            1 RES     
   29240 C0         979.0171  -772.8849  -665.3767 C0            1 RES     
   29241 C0         978.4079  -773.8267  -664.3380 C0            1 RES     
   29242 C0         973.1233  -767.5914  -660.1211 C0            1 RES     
   29243 C0         972.4796  -766.1766  -660.1671 C0            1 RES     
   29244 C0         971.3740  -766.0012  -659.1106 C0            1 RES     
   29245 C0         970.6351  -764.6731  -659.1122 C0            1 RES     
   29246 C0         971.3929  -763.4605  -658.5902 C0            1 RES     
   29247 C0         970.3882  -762.2918  -658.5293 C0            1 RES     
   29248 C0         970.9340  -761.0189  -657.8798 C0            1 RES     
   29249 C0         971.2011  -761.1984  -656.3846 C0            1 RES     
   29250 H6         970.9336  -768.9569  -662.3539 H6            1 RES     
   29251 H6         971.7029  -770.4094  -661.8730 H6            1 RES     
   29252 H6         973.5049  -769.5122  -660.9155 H6            1 RES     
   29253 H6         972.6482  -767.3880  -662.9966 H6            1 RES     
   29254 H6         973.2150  -769.0574  -663.3450 H6            1 RES     
   29255 H6         975.4523  -768.5135  -662.3594 H6            1 RES     
   29256 H6         974.9113  -766.8241  -662.0568 H6            1 RES     
   29257 H6         976.2460  -766.8532  -664.0310 H6            1 RES     
   29258 H6         974.5734  -766.3519  -664.3989 H6            1 RES     
   29259 H6         975.5268  -767.8061  -666.1573 H6            1 RES     
   29260 H6         974.0572  -768.5172  -665.4281 H6            1 RES     
   29261 H6         975.4002  -770.1087  -664.0980 H6            1 RES     
   29262 H6         975.7445  -770.2187  -665.8548 H6            1 RES     
   29263 H6         977.4772  -768.7583  -663.7498 H6            1 RES     
   29264 H6         977.8606  -768.8506  -665.5060 H6            1 RES     
   29265 H6         979.1447  -770.4520  -664.0778 H6            1 RES     
   29266 H6         977.6083  -771.2175  -663.5331 H6            1 RES     
   29267 H6         977.1616  -771.9277  -665.9435 H6            1 RES     
   29268 H6         978.6537  -771.0513  -666.4435 H6            1 RES     
   29269 H6         980.0454  -772.5999  -665.0650 H6            1 RES     
   29270 H6         979.0879  -773.4376  -666.3382 H6            1 RES     
   29271 H6         978.3594  -773.3487  -663.3389 H6            1 RES     
   29272 H6         977.3871  -774.1340  -664.6504 H6            1 RES     
   29273 H6         979.0404  -774.7352  -664.2517 H6            1 RES     
   29274 H6         974.2133  -767.4176  -660.1826 H6            1 RES     
   29275 H6         973.1118  -768.0003  -659.0933 H6            1 RES     
   29276 H6         973.2599  -765.4405  -659.8730 H6            1 RES     
   29277 H6         972.1538  -765.9222  -661.1960 H6            1 RES     
   29278 H6         971.7773  -766.2085  -658.0934 H6            1 RES     
   29279 H6         970.5714  -766.7049  -659.3006 H6            1 RES     
   29280 H6         970.2086  -764.4789  -660.1203 H6            1 RES     
   29281 H6         969.8120  -764.8087  -658.3914 H6            1 RES     
   29282 H6         971.7674  -763.7067  -657.5742 H6            1 RES     
   29283 H6         972.2522  -763.2107  -659.2467 H6            1 RES     
   29284 H6         970.0706  -762.0563  -659.5689 H6            1 RES     
   29285 H6         969.4786  -762.5935  -657.9604 H6            1 RES     
   29286 H6         970.1545  -760.2329  -657.9869 H6            1 RES     
   29287 H6         971.8501  -760.6844  -658.4058 H6            1 RES     
   29288 H6         972.0014  -761.9428  -656.2023 H6            1 RES     
   29289 H6         971.5232  -760.2293  -655.9513 H6            1 RES     
   29290 H6         970.2741  -761.5250  -655.8643 H6            1 RES     
   29291 C0         970.0669  -782.6768  -660.3261 C0            1 RES     
   29292 C1         969.3723  -781.3235  -660.5941 C1            1 RES     
   29293 C1         968.2702  -781.4540  -661.3774 C1            1 RES     
   29294 S2         967.5462  -779.9948  -661.7633 S2            1 RES     
   29295 C1         968.7255  -779.1098  -660.9166 C1            1 RES     
   29296 C1         969.6691  -779.9725  -660.3484 C1            1 RES     
   29297 C1         968.1233  -782.8120  -661.7336 C1            1 RES     
   29298 C1         969.1684  -783.5225  -661.2297 C1            1 RES     
   29299 C1         969.1661  -784.8435  -661.6613 C1            1 RES     
   29300 C1         968.0521  -785.0946  -662.4800 C1            1 RES     
   29301 S2         967.0936  -783.7079  -662.6843 S2            1 RES     
   29302 H3         970.5360  -779.5992  -659.8371 H3            1 RES     
   29303 H3         969.9232  -785.5749  -661.4047 H3            1 RES     
   29304 N4         966.3827  -788.2606  -663.5932 N4            1 RES     
   29305 C1         966.6533  -787.1264  -662.8830 C1            1 RES     
   29306 C1         967.7712  -786.3338  -663.1962 C1            1 RES     
   29307 C1         968.5788  -786.7274  -664.2647 C1            1 RES     
   29308 N4         969.6522  -786.0231  -664.7066 N4            1 RES     
   29309 S2         970.1539  -786.9229  -665.9991 S2            1 RES     
   29310 N4         969.0816  -788.1825  -666.0436 N4            1 RES     
   29311 C1         968.2652  -787.8987  -664.9989 C1            1 RES     
   29312 C1         967.1619  -788.6661  -664.6349 C1            1 RES     
   29313 H5         965.9996  -786.8431  -662.0627 H5            1 RES     
   29314 C0         970.0372  -783.2905  -658.8820 C0            1 RES     
   29315 C0         968.8491  -783.9346  -658.0723 C0            1 RES     
   29316 C0         969.4394  -784.2348  -656.6497 C0            1 RES     
   29317 C0         968.5145  -784.9422  -655.6515 C0            1 RES     
   29318 C0         969.1831  -785.1396  -654.2706 C0            1 RES     
   29319 C0         970.4428  -786.0333  -654.2547 C0            1 RES     
   29320 C0         970.2482  -787.4380  -654.8523 C0            1 RES     
   29321 C0         969.1336  -788.2400  -654.1573 C0            1 RES     
   29322 C0         968.9036  -789.6193  -654.7914 C0            1 RES     
   29323 C0         970.0896  -790.5795  -654.5991 C0            1 RES     
   29324 C0         969.8038  -791.9909  -655.1363 C0            1 RES     
   29325 C0         969.6252  -792.0330  -656.6544 C0            1 RES     
   29326 C0         967.4756  -783.1914  -657.9930 C0            1 RES     
   29327 C0         967.3944  -781.8150  -657.2639 C0            1 RES     
   29328 C0         966.8961  -780.7579  -658.2540 C0            1 RES     
   29329 C0         967.0449  -779.2888  -657.8692 C0            1 RES     
   29330 C0         966.0020  -778.7307  -656.9118 C0            1 RES     
   29331 C0         966.3120  -777.2340  -656.6997 C0            1 RES     
   29332 C0         965.2425  -776.4752  -655.9107 C0            1 RES     
   29333 C0         963.9322  -776.3416  -656.6894 C0            1 RES     
   29334 H6         970.4137  -782.5416  -658.2329 H6            1 RES     
   29335 H6         970.7910  -784.1091  -658.9180 H6            1 RES     
   29336 H6         968.6152  -784.9029  -658.5684 H6            1 RES     
   29337 H6         969.7618  -783.2808  -656.1779 H6            1 RES     
   29338 H6         970.3446  -784.8646  -656.7849 H6            1 RES     
   29339 H6         968.1783  -785.9142  -656.0662 H6            1 RES     
   29340 H6         967.6202  -784.3117  -655.4725 H6            1 RES     
   29341 H6         968.4288  -785.5715  -653.5808 H6            1 RES     
   29342 H6         969.4604  -784.1469  -653.8519 H6            1 RES     
   29343 H6         970.7814  -786.1330  -653.1994 H6            1 RES     
   29344 H6         971.2645  -785.5320  -654.8094 H6            1 RES     
   29345 H6         970.0171  -787.3467  -655.9346 H6            1 RES     
   29346 H6         971.2154  -787.9737  -654.7569 H6            1 RES     
   29347 H6         968.1771  -787.6885  -654.2621 H6            1 RES     
   29348 H6         969.3563  -788.3508  -653.0734 H6            1 RES     
   29349 H6         968.0120  -790.0687  -654.3022 H6            1 RES     
   29350 H6         968.6758  -789.4794  -655.8690 H6            1 RES     
   29351 H6         971.0029  -790.1873  -655.0927 H6            1 RES     
   29352 H6         970.2900  -790.6668  -653.5090 H6            1 RES     
   29353 H6         968.8982  -792.4062  -654.6424 H6            1 RES     
   29354 H6         970.6672  -792.6407  -654.8765 H6            1 RES     
   29355 H6         968.7425  -791.4434  -656.9744 H6            1 RES     
   29356 H6         970.5337  -791.6393  -657.1578 H6            1 RES     
   29357 H6         969.4675  -793.0835  -656.9767 H6            1 RES     
   29358 H6         966.7576  -783.8670  -657.4808 H6            1 RES     
   29359 H6         967.0549  -783.1289  -659.0195 H6            1 RES     
   29360 H6         966.6773  -781.8600  -656.4137 H6            1 RES     
   29361 H6         968.3899  -781.5374  -656.8619 H6            1 RES     
   29362 H6         965.8745  -780.9795  -658.6285 H6            1 RES     
   29363 H6         967.5686  -780.8591  -659.0791 H6            1 RES     
   29364 H6         968.0561  -779.1190  -657.4913 H6            1 RES     
   29365 H6         966.9459  -778.7062  -658.8133 H6            1 RES     
   29366 H6         965.0099  -778.8652  -657.3926 H6            1 RES     
   29367 H6         966.0138  -779.2681  -655.9401 H6            1 RES     
   29368 H6         967.2811  -777.1576  -656.1564 H6            1 RES     
   29369 H6         966.4356  -776.7192  -657.6797 H6            1 RES     
   29370 H6         965.6247  -775.4470  -655.7266 H6            1 RES     
   29371 H6         965.0667  -776.9656  -654.9302 H6            1 RES     
   29372 H6         963.4682  -777.3300  -656.8770 H6            1 RES     
   29373 H6         963.2160  -775.7274  -656.1067 H6            1 RES     
   29374 H6         964.1161  -775.8359  -657.6636 H6            1 RES     
   29375 C0         971.5399  -782.4980  -660.8680 C0            1 RES     
   29376 C0         972.8617  -782.4637  -659.9749 C0            1 RES     
   29377 C0         973.9549  -781.7387  -660.8303 C0            1 RES     
   29378 C0         975.3937  -781.8214  -660.2818 C0            1 RES     
   29379 C0         976.4303  -781.0758  -661.1407 C0            1 RES     
   29380 C0         976.5692  -781.5632  -662.5940 C0            1 RES     
   29381 C0         976.8404  -783.0682  -662.7555 C0            1 RES     
   29382 C0         978.1065  -783.5445  -662.0218 C0            1 RES     
   29383 C0         978.3605  -785.0514  -662.1890 C0            1 RES     
   29384 C0         978.7045  -785.4437  -663.6370 C0            1 RES     
   29385 C0         979.0809  -786.9263  -663.7839 C0            1 RES     
   29386 C0         977.9208  -787.8758  -663.4846 C0            1 RES     
   29387 C0         972.9301  -782.0114  -658.4557 C0            1 RES     
   29388 C0         972.6869  -780.5376  -658.0238 C0            1 RES     
   29389 C0         971.3242  -780.3462  -657.3339 C0            1 RES     
   29390 C0         970.9594  -778.9277  -656.9283 C0            1 RES     
   29391 C0         971.6997  -778.3383  -655.7360 C0            1 RES     
   29392 C0         971.0379  -776.9818  -655.4189 C0            1 RES     
   29393 C0         971.5523  -776.3067  -654.1462 C0            1 RES     
   29394 C0         971.1643  -777.0765  -652.8829 C0            1 RES     
   29395 H6         971.5488  -781.6168  -661.5511 H6            1 RES     
   29396 H6         971.7250  -783.3196  -661.5964 H6            1 RES     
   29397 H6         973.1568  -783.5359  -659.9017 H6            1 RES     
   29398 H6         973.6792  -780.6675  -660.9393 H6            1 RES     
   29399 H6         973.9521  -782.1968  -661.8428 H6            1 RES     
   29400 H6         975.6831  -782.8873  -660.1696 H6            1 RES     
   29401 H6         975.4558  -781.3344  -659.2894 H6            1 RES     
   29402 H6         977.4155  -781.1659  -660.6351 H6            1 RES     
   29403 H6         976.1777  -779.9928  -661.1607 H6            1 RES     
   29404 H6         977.3965  -780.9904  -663.0673 H6            1 RES     
   29405 H6         975.6409  -781.3184  -663.1529 H6            1 RES     
   29406 H6         975.9654  -783.6451  -662.3869 H6            1 RES     
   29407 H6         976.9377  -783.2589  -663.8437 H6            1 RES     
   29408 H6         977.9821  -783.3599  -660.9344 H6            1 RES     
   29409 H6         978.9930  -782.9729  -662.3724 H6            1 RES     
   29410 H6         979.2242  -785.3205  -661.5426 H6            1 RES     
   29411 H6         977.4693  -785.6072  -661.8278 H6            1 RES     
   29412 H6         977.8590  -785.2237  -664.3208 H6            1 RES     
   29413 H6         979.5813  -784.8404  -663.9590 H6            1 RES     
   29414 H6         979.9398  -787.1646  -663.1195 H6            1 RES     
   29415 H6         979.3989  -787.0973  -664.8349 H6            1 RES     
   29416 H6         977.5914  -787.7905  -662.4294 H6            1 RES     
   29417 H6         977.0640  -787.6593  -664.1576 H6            1 RES     
   29418 H6         978.2504  -788.9222  -663.6560 H6            1 RES     
   29419 H6         973.9657  -782.2394  -658.1435 H6            1 RES     
   29420 H6         972.4259  -782.7158  -657.7677 H6            1 RES     
   29421 H6         973.4312  -780.2892  -657.2353 H6            1 RES     
   29422 H6         972.8561  -779.8427  -658.8711 H6            1 RES     
   29423 H6         971.2392  -781.0248  -656.4549 H6            1 RES     
   29424 H6         970.5263  -780.5945  -658.0248 H6            1 RES     
   29425 H6         971.0173  -778.2551  -657.8116 H6            1 RES     
   29426 H6         969.9118  -778.9925  -656.5912 H6            1 RES     
   29427 H6         971.5809  -779.0396  -654.8831 H6            1 RES     
   29428 H6         972.7799  -778.2104  -655.9571 H6            1 RES     
   29429 H6         971.2144  -776.3024  -656.2818 H6            1 RES     
   29430 H6         969.9358  -777.1059  -655.3091 H6            1 RES     
   29431 H6         971.0726  -775.3050  -654.0864 H6            1 RES     
   29432 H6         972.6506  -776.1715  -654.2029 H6            1 RES     
   29433 H6         971.6423  -778.0758  -652.8544 H6            1 RES     
   29434 H6         971.4966  -776.5073  -651.9907 H6            1 RES     
   29435 H6         970.0602  -777.1990  -652.8304 H6            1 RES     
   29436 C0         966.9396  -793.8524  -666.2572 C0            1 RES     
   29437 C1         966.7245  -792.3362  -666.0556 C1            1 RES     
   29438 C1         966.0192  -791.7743  -667.0714 C1            1 RES     
   29439 S2         965.8475  -790.1150  -666.9301 S2            1 RES     
   29440 C1         966.7642  -790.0753  -665.4986 C1            1 RES     
   29441 C1         967.1925  -791.3628  -665.1571 C1            1 RES     
   29442 C1         965.7269  -792.7704  -668.0280 C1            1 RES     
   29443 C1         966.3048  -793.9413  -667.6457 C1            1 RES     
   29444 C1         966.1794  -794.9324  -668.6118 C1            1 RES     
   29445 C1         965.4505  -794.4581  -669.7154 C1            1 RES     
   29446 S2         964.9823  -792.8383  -669.5137 S2            1 RES     
   29447 H3         967.8485  -791.5347  -664.3250 H3            1 RES     
   29448 H3         966.5925  -795.9302  -668.5254 H3            1 RES     
   29449 N4         963.6955  -796.1965  -672.5347 N4            1 RES     
   29450 C1         963.9098  -795.5614  -671.3452 C1            1 RES     
   29451 C1         965.2062  -795.1780  -670.9603 C1            1 RES     
   29452 C1         966.2592  -795.4445  -671.8371 C1            1 RES     
   29453 N4         967.5469  -795.0765  -671.6136 N4            1 RES     
   29454 S2         968.3026  -795.5907  -672.9907 S2            1 RES     
   29455 N4         967.0838  -796.2706  -673.8798 N4            1 RES     
   29456 C1         966.0079  -796.0875  -673.0751 C1            1 RES     
   29457 C1         964.7101  -796.4721  -673.4016 C1            1 RES     
   29458 H5         963.0671  -795.3608  -670.6893 H5            1 RES     
   29459 C0         966.2106  -794.8708  -665.3117 C0            1 RES     
   29460 C0         964.6896  -795.2720  -665.2247 C0            1 RES     
   29461 C0         964.5918  -796.2394  -663.9931 C0            1 RES     
   29462 C0         963.2177  -796.8568  -663.7050 C0            1 RES     
   29463 C0         963.2290  -797.7497  -662.4419 C0            1 RES     
   29464 C0         964.1494  -798.9888  -662.5022 C0            1 RES     
   29465 C0         963.8989  -799.9243  -663.6981 C0            1 RES     
   29466 C0         962.4535  -800.4490  -663.7610 C0            1 RES     
   29467 C0         962.1914  -801.3371  -664.9858 C0            1 RES     
   29468 C0         962.9620  -802.6675  -664.9452 C0            1 RES     
   29469 C0         962.6048  -803.5963  -666.1166 C0            1 RES     
   29470 C0         963.0318  -803.0423  -667.4764 C0            1 RES     
   29471 C0         963.5969  -794.1542  -665.1812 C0            1 RES     
   29472 C0         963.5433  -793.1875  -663.9584 C0            1 RES     
   29473 C0         963.7211  -791.7495  -664.4548 C0            1 RES     
   29474 C0         964.0285  -790.6679  -663.4230 C0            1 RES     
   29475 C0         962.8455  -790.1348  -662.6282 C0            1 RES     
   29476 C0         963.3706  -789.0287  -661.6889 C0            1 RES     
   29477 C0         962.2744  -788.2543  -660.9536 C0            1 RES     
   29478 C0         961.4397  -787.3896  -661.9007 C0            1 RES     
   29479 H6         966.4579  -794.5863  -664.3209 H6            1 RES     
   29480 H6         966.7163  -795.8417  -665.5150 H6            1 RES     
   29481 H6         964.4608  -795.8513  -666.1470 H6            1 RES     
   29482 H6         964.9058  -795.6966  -663.0748 H6            1 RES     
   29483 H6         965.3135  -797.0684  -664.1558 H6            1 RES     
   29484 H6         962.8649  -797.4300  -664.5864 H6            1 RES     
   29485 H6         962.4888  -796.0464  -663.5018 H6            1 RES     
   29486 H6         962.1893  -798.0850  -662.2472 H6            1 RES     
   29487 H6         963.5323  -797.1386  -661.5631 H6            1 RES     
   29488 H6         964.0155  -799.5638  -661.5589 H6            1 RES     
   29489 H6         965.2117  -798.6650  -662.5326 H6            1 RES     
   29490 H6         964.1375  -799.3865  -664.6399 H6            1 RES     
   29491 H6         964.6062  -800.7745  -663.6054 H6            1 RES     
   29492 H6         961.7629  -799.5860  -663.8517 H6            1 RES     
   29493 H6         962.2024  -801.0011  -662.8288 H6            1 RES     
   29494 H6         961.1039  -801.5678  -665.0060 H6            1 RES     
   29495 H6         962.4419  -800.7602  -665.9007 H6            1 RES     
   29496 H6         964.0578  -802.4927  -664.9488 H6            1 RES     
   29497 H6         962.6937  -803.1933  -664.0029 H6            1 RES     
   29498 H6         961.5107  -803.7940  -666.1210 H6            1 RES     
   29499 H6         963.1298  -804.5638  -665.9626 H6            1 RES     
   29500 H6         962.5000  -802.0990  -667.7139 H6            1 RES     
   29501 H6         964.1276  -802.8611  -667.4890 H6            1 RES     
   29502 H6         962.7848  -803.7806  -668.2678 H6            1 RES     
   29503 H6         962.6052  -794.6519  -665.2386 H6            1 RES     
   29504 H6         963.6379  -793.5912  -666.1382 H6            1 RES     
   29505 H6         962.5596  -793.2577  -663.4422 H6            1 RES     
   29506 H6         964.3358  -793.4514  -663.2289 H6            1 RES     
   29507 H6         962.9070  -791.4371  -665.1422 H6            1 RES     
   29508 H6         964.6229  -791.7979  -665.0274 H6            1 RES     
   29509 H6         964.8205  -791.0224  -662.7589 H6            1 RES     
   29510 H6         964.4396  -789.8020  -663.9902 H6            1 RES     
   29511 H6         962.1187  -789.7213  -663.3591 H6            1 RES     
   29512 H6         962.3556  -790.9393  -662.0399 H6            1 RES     
   29513 H6         964.0395  -789.5056  -660.9370 H6            1 RES     
   29514 H6         963.9795  -788.2905  -662.2589 H6            1 RES     
   29515 H6         962.7711  -787.5697  -660.2313 H6            1 RES     
   29516 H6         961.6240  -788.9525  -660.3859 H6            1 RES     
   29517 H6         960.8802  -788.0085  -662.6296 H6            1 RES     
   29518 H6         960.7078  -786.7981  -661.3141 H6            1 RES     
   29519 H6         962.0982  -786.6832  -662.4541 H6            1 RES     
   29520 C0         968.5070  -794.0501  -666.2517 C0            1 RES     
   29521 C0         969.3441  -794.8135  -665.1281 C0            1 RES     
   29522 C0         970.8163  -794.2920  -665.2425 C0            1 RES     
   29523 C0         971.8672  -795.0802  -664.4349 C0            1 RES     
   29524 C0         973.2948  -794.5189  -664.5577 C0            1 RES     
   29525 C0         973.8811  -794.4884  -665.9805 C0            1 RES     
   29526 C0         973.8531  -795.8320  -666.7279 C0            1 RES     
   29527 C0         974.5900  -796.9609  -665.9859 C0            1 RES     
   29528 C0         974.5484  -798.2979  -666.7434 C0            1 RES     
   29529 C0         975.3368  -798.2622  -668.0649 C0            1 RES     
   29530 C0         975.4020  -799.6300  -668.7621 C0            1 RES     
   29531 C0         974.0385  -800.1288  -669.2409 C0            1 RES     
   29532 C0         968.9092  -794.9732  -663.6108 C0            1 RES     
   29533 C0         968.8492  -793.7603  -662.6396 C0            1 RES     
   29534 C0         967.4044  -793.3343  -662.3225 C0            1 RES     
   29535 C0         967.2339  -792.1155  -661.4308 C0            1 RES     
   29536 C0         967.5575  -792.2898  -659.9536 C0            1 RES     
   29537 C0         967.1428  -790.9851  -659.2433 C0            1 RES     
   29538 C0         967.2522  -791.0304  -657.7181 C0            1 RES     
   29539 C0         966.2396  -791.9901  -657.0915 C0            1 RES     
   29540 H6         968.9781  -793.0560  -666.4330 H6            1 RES     
   29541 H6         968.7760  -794.5759  -667.1958 H6            1 RES     
   29542 H6         969.3413  -795.8732  -665.4734 H6            1 RES     
   29543 H6         970.8502  -793.2280  -664.9231 H6            1 RES     
   29544 H6         971.1095  -794.3366  -666.3135 H6            1 RES     
   29545 H6         971.8454  -796.1459  -664.7456 H6            1 RES     
   29546 H6         971.6411  -795.0254  -663.3524 H6            1 RES     
   29547 H6         973.9559  -795.1325  -663.9091 H6            1 RES     
   29548 H6         973.3170  -793.4839  -664.1511 H6            1 RES     
   29549 H6         974.9323  -794.1330  -665.9077 H6            1 RES     
   29550 H6         973.3259  -793.7436  -666.5897 H6            1 RES     
   29551 H6         972.7995  -796.1372  -666.9043 H6            1 RES     
   29552 H6         974.3247  -795.6561  -667.7162 H6            1 RES     
   29553 H6         974.0931  -797.1319  -665.0081 H6            1 RES     
   29554 H6         975.6456  -796.6707  -665.7935 H6            1 RES     
   29555 H6         975.0062  -799.0703  -666.0877 H6            1 RES     
   29556 H6         973.4879  -798.5764  -666.9209 H6            1 RES     
   29557 H6         974.8990  -797.5259  -668.7700 H6            1 RES     
   29558 H6         976.3795  -797.9509  -667.8364 H6            1 RES     
   29559 H6         975.8552  -800.3803  -668.0783 H6            1 RES     
   29560 H6         976.0604  -799.5308  -669.6519 H6            1 RES     
   29561 H6         973.3493  -800.2992  -668.3894 H6            1 RES     
   29562 H6         973.5857  -799.3951  -669.9414 H6            1 RES     
   29563 H6         974.1681  -801.0941  -669.7739 H6            1 RES     
   29564 H6         969.6608  -795.6575  -663.1761 H6            1 RES     
   29565 H6         968.0331  -795.6348  -663.4753 H6            1 RES     
   29566 H6         969.2593  -794.0910  -661.6600 H6            1 RES     
   29567 H6         969.4867  -792.9290  -663.0031 H6            1 RES     
   29568 H6         966.8333  -794.1932  -661.9026 H6            1 RES     
   29569 H6         966.9082  -793.0175  -663.2331 H6            1 RES     
   29570 H6         967.7812  -791.2503  -661.8642 H6            1 RES     
   29571 H6         966.1520  -791.9042  -661.4476 H6            1 RES     
   29572 H6         966.9614  -793.1469  -659.5751 H6            1 RES     
   29573 H6         968.6369  -792.4986  -659.8008 H6            1 RES     
   29574 H6         967.7895  -790.1646  -659.6251 H6            1 RES     
   29575 H6         966.0884  -790.7265  -659.4950 H6            1 RES     
   29576 H6         967.0225  -790.0101  -657.3398 H6            1 RES     
   29577 H6         968.2849  -791.2964  -657.4172 H6            1 RES     
   29578 H6         966.4337  -793.0383  -657.3938 H6            1 RES     
   29579 H6         966.3123  -791.9286  -655.9862 H6            1 RES     
   29580 H6         965.2062  -791.7095  -657.3918 H6            1 RES     
   29581 C0         963.9991  -800.3099  -677.1889 C0            1 RES     
   29582 C1         964.0639  -798.9910  -676.3876 C1            1 RES     
   29583 C1         963.9573  -797.8960  -677.1843 C1            1 RES     
   29584 S2         964.1162  -796.4487  -676.3581 S2            1 RES     
   29585 C1         964.3818  -797.2451  -674.8796 C1            1 RES     
   29586 C1         964.3448  -798.6323  -675.0586 C1            1 RES     
   29587 C1         963.8510  -798.3187  -678.5269 C1            1 RES     
   29588 C1         963.9575  -799.6740  -678.5793 C1            1 RES     
   29589 C1         964.0051  -800.1502  -679.8839 C1            1 RES     
   29590 C1         963.8925  -799.0919  -680.8013 C1            1 RES     
   29591 S2         963.7542  -797.5909  -680.0194 S2            1 RES     
   29592 H3         964.5658  -799.3088  -674.2551 H3            1 RES     
   29593 H3         964.1189  -801.1934  -680.1533 H3            1 RES     
   29594 N4         963.0468  -798.9759  -684.4511 N4            1 RES     
   29595 C1         962.9121  -798.9170  -683.0937 C1            1 RES     
   29596 C1         964.0033  -799.1938  -682.2521 C1            1 RES     
   29597 C1         965.2285  -799.5066  -682.8438 C1            1 RES     
   29598 N4         966.3718  -799.7379  -682.1489 N4            1 RES     
   29599 S2         967.4728  -799.9827  -683.3571 S2            1 RES     
   29600 N4         966.5830  -799.8161  -684.7423 N4            1 RES     
   29601 C1         965.3473  -799.5420  -684.2558 C1            1 RES     
   29602 C1         964.2316  -799.2859  -685.0486 C1            1 RES     
   29603 H5         961.9469  -798.6618  -682.6650 H5            1 RES     
   29604 C0         962.7517  -801.2495  -677.0351 C0            1 RES     
   29605 C0         961.2708  -801.0689  -677.5414 C0            1 RES     
   29606 C0         960.4859  -802.2946  -676.9550 C0            1 RES     
   29607 C0         959.0094  -802.4241  -677.3493 C0            1 RES     
   29608 C0         958.3261  -803.6364  -676.6737 C0            1 RES     
   29609 C0         958.8968  -805.0230  -677.0442 C0            1 RES     
   29610 C0         958.9352  -805.3259  -678.5525 C0            1 RES     
   29611 C0         957.5532  -805.2279  -679.2227 C0            1 RES     
   29612 C0         957.6031  -805.4756  -680.7372 C0            1 RES     
   29613 C0         957.9803  -806.9213  -681.1023 C0            1 RES     
   29614 C0         957.9154  -807.1877  -682.6146 C0            1 RES     
   29615 C0         958.9528  -806.3954  -683.4110 C0            1 RES     
   29616 C0         960.5260  -799.7180  -677.2854 C0            1 RES     
   29617 C0         960.2125  -799.2861  -675.8198 C0            1 RES     
   29618 C0         960.8846  -797.9374  -675.5457 C0            1 RES     
   29619 C0         960.9938  -797.4724  -674.0963 C0            1 RES     
   29620 C0         959.7439  -796.8533  -673.4880 C0            1 RES     
   29621 C0         960.0892  -796.4150  -672.0493 C0            1 RES     
   29622 C0         958.9936  -795.5986  -671.3598 C0            1 RES     
   29623 C0         958.8117  -794.2184  -671.9948 C0            1 RES     
   29624 H6         962.6467  -801.4369  -675.9970 H6            1 RES     
   29625 H6         963.0678  -802.2032  -677.5149 H6            1 RES     
   29626 H6         961.3001  -801.1666  -678.6497 H6            1 RES     
   29627 H6         960.5262  -802.2582  -675.8444 H6            1 RES     
   29628 H6         961.0104  -803.2188  -677.2794 H6            1 RES     
   29629 H6         958.9134  -802.4853  -678.4524 H6            1 RES     
   29630 H6         958.4586  -801.5273  -677.0007 H6            1 RES     
   29631 H6         957.2472  -803.6123  -676.9322 H6            1 RES     
   29632 H6         958.3874  -803.5233  -675.5686 H6            1 RES     
   29633 H6         958.2798  -805.7969  -676.5355 H6            1 RES     
   29634 H6         959.9289  -805.1220  -676.6450 H6            1 RES     
   29635 H6         959.6369  -804.6232  -679.0493 H6            1 RES     
   29636 H6         959.3419  -806.3515  -678.6725 H6            1 RES     
   29637 H6         957.1636  -804.1980  -679.0908 H6            1 RES     
   29638 H6         956.8411  -805.9352  -678.7438 H6            1 RES     
   29639 H6         956.5892  -805.2694  -681.1441 H6            1 RES     
   29640 H6         958.3135  -804.7527  -681.1903 H6            1 RES     
   29641 H6         958.9988  -807.1704  -680.7388 H6            1 RES     
   29642 H6         957.2547  -807.6029  -680.6074 H6            1 RES     
   29643 H6         956.8965  -806.9561  -682.9949 H6            1 RES     
   29644 H6         958.1092  -808.2690  -682.7834 H6            1 RES     
   29645 H6         958.7803  -805.3035  -683.3262 H6            1 RES     
   29646 H6         959.9762  -806.6359  -683.0523 H6            1 RES     
   29647 H6         958.8793  -806.6690  -684.4844 H6            1 RES     
   29648 H6         959.5529  -799.7648  -677.8196 H6            1 RES     
   29649 H6         961.0628  -798.9158  -677.8356 H6            1 RES     
   29650 H6         959.1162  -799.1648  -675.6697 H6            1 RES     
   29651 H6         960.5752  -800.0566  -675.1095 H6            1 RES     
   29652 H6         960.4967  -797.1316  -676.2039 H6            1 RES     
   29653 H6         961.9035  -798.1116  -675.8191 H6            1 RES     
   29654 H6         961.3617  -798.2985  -673.4828 H6            1 RES     
   29655 H6         961.7752  -796.6789  -674.0801 H6            1 RES     
   29656 H6         959.4735  -795.9771  -674.1146 H6            1 RES     
   29657 H6         958.8975  -797.5722  -673.4791 H6            1 RES     
   29658 H6         960.2856  -797.3320  -671.4487 H6            1 RES     
   29659 H6         961.0200  -795.8033  -672.0414 H6            1 RES     
   29660 H6         959.3053  -795.4389  -670.3041 H6            1 RES     
   29661 H6         958.0356  -796.1598  -671.3624 H6            1 RES     
   29662 H6         958.4611  -794.2961  -673.0428 H6            1 RES     
   29663 H6         958.0592  -793.6421  -671.4192 H6            1 RES     
   29664 H6         959.7732  -793.6581  -671.9741 H6            1 RES     
   29665 C0         965.3524  -801.0568  -676.8626 C0            1 RES     
   29666 C0         965.4897  -802.4115  -676.0306 C0            1 RES     
   29667 C0         966.9644  -802.4607  -675.5060 C0            1 RES     
   29668 C0         967.4110  -803.8059  -674.8985 C0            1 RES     
   29669 C0         968.8580  -803.8016  -674.3747 C0            1 RES     
   29670 C0         969.9464  -803.4981  -675.4198 C0            1 RES     
   29671 C0         969.9171  -804.3900  -676.6720 C0            1 RES     
   29672 C0         970.0336  -805.8918  -676.3570 C0            1 RES     
   29673 C0         969.9976  -806.7696  -677.6185 C0            1 RES     
   29674 C0         971.2278  -806.5707  -678.5218 C0            1 RES     
   29675 C0         971.2565  -807.5351  -679.7178 C0            1 RES     
   29676 C0         970.1166  -807.3008  -680.7093 C0            1 RES     
   29677 C0         964.4707  -802.9147  -674.9236 C0            1 RES     
   29678 C0         964.3048  -802.1807  -673.5629 C0            1 RES     
   29679 C0         962.9850  -801.3931  -673.4789 C0            1 RES     
   29680 C0         962.7529  -800.5860  -672.2122 C0            1 RES     
   29681 C0         962.4236  -801.3660  -670.9471 C0            1 RES     
   29682 C0         962.0637  -800.3325  -669.8602 C0            1 RES     
   29683 C0         961.5529  -800.9391  -668.5520 C0            1 RES     
   29684 C0         960.1904  -801.6138  -668.7177 C0            1 RES     
   29685 H6         966.0644  -800.3080  -676.4437 H6            1 RES     
   29686 H6         965.8465  -801.2831  -677.8345 H6            1 RES     
   29687 H6         965.3879  -803.2064  -676.8051 H6            1 RES     
   29688 H6         967.1051  -801.6645  -674.7434 H6            1 RES     
   29689 H6         967.6365  -802.2364  -676.3620 H6            1 RES     
   29690 H6         967.2774  -804.6110  -675.6512 H6            1 RES     
   29691 H6         966.7966  -804.0499  -674.0103 H6            1 RES     
   29692 H6         969.0578  -804.7980  -673.9260 H6            1 RES     
   29693 H6         968.9476  -803.0562  -673.5540 H6            1 RES     
   29694 H6         970.9350  -803.6013  -674.9212 H6            1 RES     
   29695 H6         969.8549  -802.4406  -675.7477 H6            1 RES     
   29696 H6         968.9781  -804.2067  -677.2369 H6            1 RES     
   29697 H6         970.7648  -804.0691  -677.3111 H6            1 RES     
   29698 H6         969.1685  -806.1955  -675.7313 H6            1 RES     
   29699 H6         970.9648  -806.0943  -675.7848 H6            1 RES     
   29700 H6         969.9778  -807.8312  -677.2889 H6            1 RES     
   29701 H6         969.0587  -806.5603  -678.1740 H6            1 RES     
   29702 H6         971.2768  -805.5305  -678.9046 H6            1 RES     
   29703 H6         972.1379  -806.7628  -677.9127 H6            1 RES     
   29704 H6         971.2266  -808.5856  -679.3555 H6            1 RES     
   29705 H6         972.2154  -807.3830  -680.2586 H6            1 RES     
   29706 H6         969.1295  -807.4900  -680.2414 H6            1 RES     
   29707 H6         970.1498  -806.2590  -681.0932 H6            1 RES     
   29708 H6         970.2277  -807.9979  -681.5663 H6            1 RES     
   29709 H6         964.8195  -803.9314  -674.6656 H6            1 RES     
   29710 H6         963.4889  -803.2121  -675.3374 H6            1 RES     
   29711 H6         964.2132  -802.9553  -672.7699 H6            1 RES     
   29712 H6         965.2007  -801.5705  -673.3293 H6            1 RES     
   29713 H6         962.1201  -802.0710  -673.6595 H6            1 RES     
   29714 H6         962.9695  -800.6228  -674.2419 H6            1 RES     
   29715 H6         963.6032  -799.8893  -672.0466 H6            1 RES     
   29716 H6         961.8404  -800.0013  -672.4148 H6            1 RES     
   29717 H6         961.5530  -802.0188  -671.1686 H6            1 RES     
   29718 H6         963.2809  -801.9946  -670.6282 H6            1 RES     
   29719 H6         962.9726  -799.7287  -669.6447 H6            1 RES     
   29720 H6         961.2784  -799.6358  -670.2343 H6            1 RES     
   29721 H6         961.4254  -800.1043  -667.8283 H6            1 RES     
   29722 H6         962.2978  -801.6513  -668.1449 H6            1 RES     
   29723 H6         960.2501  -802.4859  -669.3988 H6            1 RES     
   29724 H6         959.8352  -801.9694  -667.7288 H6            1 RES     
   29725 H6         959.4479  -800.8890  -669.1179 H6            1 RES     
   29726 C0         964.2328  -801.0312  -690.1995 C0            1 RES     
   29727 C1         964.2684  -800.1927  -688.9028 C1            1 RES     
   29728 C1         964.7284  -798.9323  -689.1144 C1            1 RES     
   29729 S2         964.8668  -798.0258  -687.7138 S2            1 RES     
   29730 C1         964.3472  -799.3223  -686.7442 C1            1 RES     
   29731 C1         964.0771  -800.4452  -687.5341 C1            1 RES     
   29732 C1         965.0667  -798.7942  -690.4779 C1            1 RES     
   29733 C1         964.8820  -799.9859  -691.1078 C1            1 RES     
   29734 C1         965.3309  -799.9636  -692.4228 C1            1 RES     
   29735 C1         965.8248  -798.6910  -692.7554 C1            1 RES     
   29736 S2         965.7271  -797.6140  -691.4461 S2            1 RES     
   29737 H3         963.8093  -801.3885  -687.0973 H3            1 RES     
   29738 H3         965.3071  -800.8134  -693.0945 H3            1 RES     
   29739 N4         966.5277  -797.0190  -696.0357 N4            1 RES     
   29740 C1         965.8879  -797.3881  -694.8875 C1            1 RES     
   29741 C1         966.4705  -798.3180  -694.0090 C1            1 RES     
   29742 C1         967.7270  -798.8325  -694.3335 C1            1 RES     
   29743 N4         968.4238  -799.6913  -693.5459 N4            1 RES     
   29744 S2         969.8265  -799.8885  -694.3976 S2            1 RES     
   29745 N4         969.6126  -798.9396  -695.7363 N4            1 RES     
   29746 C1         968.3793  -798.4184  -695.5218 C1            1 RES     
   29747 C1         967.7511  -797.5143  -696.3743 C1            1 RES     
   29748 H5         964.9145  -796.9622  -694.6598 H5            1 RES     
   29749 C0         962.8506  -801.4391  -690.8208 C0            1 RES     
   29750 C0         961.7673  -800.5654  -691.5591 C0            1 RES     
   29751 C0         960.5649  -801.5395  -691.8198 C0            1 RES     
   29752 C0         959.3728  -800.9741  -692.6018 C0            1 RES     
   29753 C0         958.2292  -802.0045  -692.7537 C0            1 RES     
   29754 C0         958.5768  -803.2834  -693.5471 C0            1 RES     
   29755 C0         959.1358  -803.0376  -694.9596 C0            1 RES     
   29756 C0         958.1868  -802.2150  -695.8490 C0            1 RES     
   29757 C0         958.7707  -801.9235  -697.2389 C0            1 RES     
   29758 C0         958.9304  -803.1843  -698.1052 C0            1 RES     
   29759 C0         959.4068  -802.8678  -699.5318 C0            1 RES     
   29760 C0         960.8210  -802.2881  -699.5799 C0            1 RES     
   29761 C0         961.3012  -799.2142  -690.9251 C0            1 RES     
   29762 C0         960.5419  -799.2329  -689.5628 C0            1 RES     
   29763 C0         961.3332  -798.4088  -688.5426 C0            1 RES     
   29764 C0         960.9650  -798.5483  -687.0683 C0            1 RES     
   29765 C0         959.7477  -797.7659  -686.5976 C0            1 RES     
   29766 C0         959.5885  -798.0112  -685.0824 C0            1 RES     
   29767 C0         958.5208  -797.1430  -684.4127 C0            1 RES     
   29768 C0         958.9134  -795.6645  -684.3773 C0            1 RES     
   29769 H6         962.3081  -801.9214  -690.0483 H6            1 RES     
   29770 H6         963.1098  -802.2128  -691.5783 H6            1 RES     
   29771 H6         962.2066  -800.2774  -692.5402 H6            1 RES     
   29772 H6         960.1732  -801.9068  -690.8461 H6            1 RES     
   29773 H6         960.9557  -802.4178  -692.3768 H6            1 RES     
   29774 H6         959.7064  -800.6103  -693.5948 H6            1 RES     
   29775 H6         958.9430  -800.1181  -692.0434 H6            1 RES     
   29776 H6         957.3728  -801.4992  -693.2461 H6            1 RES     
   29777 H6         957.8753  -802.3115  -691.7445 H6            1 RES     
   29778 H6         957.6549  -803.9017  -693.6254 H6            1 RES     
   29779 H6         959.3196  -803.8850  -692.9808 H6            1 RES     
   29780 H6         960.1129  -802.5159  -694.8810 H6            1 RES     
   29781 H6         959.3187  -804.0311  -695.4192 H6            1 RES     
   29782 H6         958.0153  -801.2281  -695.3729 H6            1 RES     
   29783 H6         957.2064  -802.7306  -695.9476 H6            1 RES     
   29784 H6         958.0708  -801.2333  -697.7585 H6            1 RES     
   29785 H6         959.7429  -801.4026  -697.1117 H6            1 RES     
   29786 H6         959.6418  -803.8983  -697.6409 H6            1 RES     
   29787 H6         957.9374  -803.6784  -698.1821 H6            1 RES     
   29788 H6         958.6977  -802.1630  -700.0184 H6            1 RES     
   29789 H6         959.4065  -803.8145  -700.1139 H6            1 RES     
   29790 H6         960.8755  -801.3110  -699.0590 H6            1 RES     
   29791 H6         961.5405  -802.9948  -699.1145 H6            1 RES     
   29792 H6         961.1158  -802.1264  -700.6379 H6            1 RES     
   29793 H6         960.6318  -798.7133  -691.6569 H6            1 RES     
   29794 H6         962.1741  -798.5276  -690.8903 H6            1 RES     
   29795 H6         959.5312  -798.7784  -689.6675 H6            1 RES     
   29796 H6         960.4164  -800.2770  -689.2108 H6            1 RES     
   29797 H6         961.4238  -797.3431  -688.8409 H6            1 RES     
   29798 H6         962.3115  -798.8381  -688.5872 H6            1 RES     
   29799 H6         960.8697  -799.6088  -686.8225 H6            1 RES     
   29800 H6         961.8320  -798.1547  -686.4904 H6            1 RES     
   29801 H6         959.9462  -796.6933  -686.8062 H6            1 RES     
   29802 H6         958.8293  -798.0799  -687.1372 H6            1 RES     
   29803 H6         959.3250  -799.0830  -684.9338 H6            1 RES     
   29804 H6         960.5519  -797.8266  -684.5547 H6            1 RES     
   29805 H6         958.4202  -797.4843  -683.3589 H6            1 RES     
   29806 H6         957.5423  -797.2759  -684.9202 H6            1 RES     
   29807 H6         958.9944  -795.2408  -685.3977 H6            1 RES     
   29808 H6         958.1434  -795.0901  -683.8234 H6            1 RES     
   29809 H6         959.8877  -795.5399  -683.8540 H6            1 RES     
   29810 C0         965.1473  -802.2850  -689.9042 C0            1 RES     
   29811 C0         964.6433  -803.7932  -689.7720 C0            1 RES     
   29812 C0         965.7430  -804.5574  -688.9601 C0            1 RES     
   29813 C0         965.6054  -806.0931  -688.9338 C0            1 RES     
   29814 C0         966.6926  -806.8006  -688.1058 C0            1 RES     
   29815 C0         968.1415  -806.5758  -688.5737 C0            1 RES     
   29816 C0         968.4090  -806.9026  -690.0523 C0            1 RES     
   29817 C0         968.0568  -808.3516  -690.4326 C0            1 RES     
   29818 C0         968.3251  -808.6605  -691.9144 C0            1 RES     
   29819 C0         969.8218  -808.6270  -692.2716 C0            1 RES     
   29820 C0         970.1031  -809.0571  -693.7198 C0            1 RES     
   29821 C0         969.5264  -808.0943  -694.7579 C0            1 RES     
   29822 C0         963.1878  -804.2374  -689.3234 C0            1 RES     
   29823 C0         962.6684  -804.0130  -687.8750 C0            1 RES     
   29824 C0         961.6317  -802.8781  -687.7934 C0            1 RES     
   29825 C0         961.1063  -802.5339  -686.4095 C0            1 RES     
   29826 C0         960.1431  -803.5244  -685.7705 C0            1 RES     
   29827 C0         959.6243  -802.8756  -684.4709 C0            1 RES     
   29828 C0         958.5206  -803.6648  -683.7643 C0            1 RES     
   29829 C0         957.2198  -803.6913  -684.5682 C0            1 RES     
   29830 H6         965.7844  -802.0439  -689.0216 H6            1 RES     
   29831 H6         965.9196  -802.3255  -690.7054 H6            1 RES     
   29832 H6         964.6802  -804.1748  -690.8184 H6            1 RES     
   29833 H6         965.7458  -804.1848  -687.9130 H6            1 RES     
   29834 H6         966.7286  -804.3139  -689.4120 H6            1 RES     
   29835 H6         965.6031  -806.4794  -689.9746 H6            1 RES     
   29836 H6         964.6543  -806.3860  -688.4484 H6            1 RES     
   29837 H6         966.4741  -807.8898  -688.1217 H6            1 RES     
   29838 H6         966.6157  -806.4734  -687.0456 H6            1 RES     
   29839 H6         968.8056  -807.1996  -687.9360 H6            1 RES     
   29840 H6         968.4228  -805.5154  -688.3988 H6            1 RES     
   29841 H6         967.8331  -806.2050  -690.6971 H6            1 RES     
   29842 H6         969.4877  -806.7150  -690.2294 H6            1 RES     
   29843 H6         966.9717  -808.5133  -690.2637 H6            1 RES     
   29844 H6         968.6186  -809.0655  -689.7922 H6            1 RES     
   29845 H6         967.9429  -809.6843  -692.1190 H6            1 RES     
   29846 H6         967.7513  -807.9437  -692.5395 H6            1 RES     
   29847 H6         970.2462  -807.6140  -692.1144 H6            1 RES     
   29848 H6         970.3528  -809.3370  -691.6005 H6            1 RES     
   29849 H6         969.7015  -810.0789  -693.8941 H6            1 RES     
   29850 H6         971.2050  -809.0900  -693.8603 H6            1 RES     
   29851 H6         968.4197  -808.0579  -694.7037 H6            1 RES     
   29852 H6         969.9375  -807.0737  -694.6051 H6            1 RES     
   29853 H6         969.8074  -808.4409  -695.7747 H6            1 RES     
   29854 H6         963.1727  -805.3327  -689.4719 H6            1 RES     
   29855 H6         962.4077  -803.9916  -690.0682 H6            1 RES     
   29856 H6         962.1039  -804.9228  -687.5736 H6            1 RES     
   29857 H6         963.5117  -803.8949  -687.1649 H6            1 RES     
   29858 H6         960.7802  -803.0845  -688.4809 H6            1 RES     
   29859 H6         962.0879  -801.9432  -688.0993 H6            1 RES     
   29860 H6         961.9547  -802.3008  -685.7300 H6            1 RES     
   29861 H6         960.5008  -801.6245  -686.5570 H6            1 RES     
   29862 H6         959.3082  -803.6929  -686.4830 H6            1 RES     
   29863 H6         960.6441  -804.4918  -685.5580 H6            1 RES     
   29864 H6         960.4850  -802.7615  -683.7756 H6            1 RES     
   29865 H6         959.2244  -801.8568  -684.6806 H6            1 RES     
   29866 H6         958.3078  -803.1473  -682.8032 H6            1 RES     
   29867 H6         958.8681  -804.6937  -683.5441 H6            1 RES     
   29868 H6         957.3471  -804.2310  -685.5276 H6            1 RES     
   29869 H6         956.4359  -804.2102  -683.9794 H6            1 RES     
   29870 H6         956.8745  -802.6547  -684.7762 H6            1 RES     
   29871 C0         969.3866  -797.2414  -701.5540 C0            1 RES     
   29872 C1         969.0953  -796.9785  -700.0601 C1            1 RES     
   29873 C1         969.8683  -795.9850  -699.5495 C1            1 RES     
   29874 S2         969.6431  -795.7370  -697.9093 S2            1 RES     
   29875 C1         968.5116  -797.0018  -697.8058 C1            1 RES     
   29876 C1         968.3316  -797.5998  -699.0579 C1            1 RES     
   29877 C1         970.7359  -795.5183  -700.5605 C1            1 RES     
   29878 C1         970.5542  -796.2623  -701.6849 C1            1 RES     
   29879 C1         971.4758  -795.9528  -702.6779 C1            1 RES     
   29880 C1         972.3292  -794.9193  -702.2561 C1            1 RES     
   29881 S2         971.9669  -794.4059  -700.6786 S2            1 RES     
   29882 H3         967.7121  -798.4675  -699.1826 H3            1 RES     
   29883 H3         971.5298  -796.4458  -703.6412 H3            1 RES     
   29884 N4         974.6142  -792.5983  -704.1112 N4            1 RES     
   29885 C1         973.5107  -793.0798  -703.4674 C1            1 RES     
   29886 C1         973.4801  -794.4002  -702.9865 C1            1 RES     
   29887 C1         974.6152  -795.1928  -703.1661 C1            1 RES     
   29888 N4         974.7379  -796.4624  -702.7006 N4            1 RES     
   29889 S2         976.2806  -796.8521  -703.1477 S2            1 RES     
   29890 N4         976.8252  -795.4911  -703.9156 N4            1 RES     
   29891 C1         975.7556  -794.6632  -703.8206 C1            1 RES     
   29892 C1         975.7296  -793.3573  -704.3030 C1            1 RES     
   29893 H5         972.6468  -792.4340  -703.3361 H5            1 RES     
   29894 C0         968.3061  -796.8725  -702.6307 C0            1 RES     
   29895 C0         967.8223  -795.4657  -703.1490 C0            1 RES     
   29896 C0         966.6354  -795.7765  -704.1272 C0            1 RES     
   29897 C0         966.0032  -794.5810  -704.8508 C0            1 RES     
   29898 C0         964.8136  -794.9996  -705.7465 C0            1 RES     
   29899 C0         965.1519  -795.9574  -706.9101 C0            1 RES     
   29900 C0         966.2596  -795.4615  -707.8562 C0            1 RES     
   29901 C0         965.9437  -794.0956  -708.4911 C0            1 RES     
   29902 C0         967.0748  -793.5772  -709.3907 C0            1 RES     
   29903 C0         967.2780  -794.4253  -710.6576 C0            1 RES     
   29904 C0         968.3332  -793.8332  -711.6053 C0            1 RES     
   29905 C0         969.7430  -793.8339  -711.0131 C0            1 RES     
   29906 C0         967.4567  -794.3469  -702.1195 C0            1 RES     
   29907 C0         966.2403  -794.5560  -701.1661 C0            1 RES     
   29908 C0         966.7290  -794.4867  -699.7161 C0            1 RES     
   29909 C0         965.7908  -794.9820  -698.6191 C0            1 RES     
   29910 C0         964.6928  -794.0230  -698.1834 C0            1 RES     
   29911 C0         963.9018  -794.7004  -697.0446 C0            1 RES     
   29912 C0         962.8783  -793.7908  -696.3612 C0            1 RES     
   29913 C0         963.5424  -792.6697  -695.5591 C0            1 RES     
   29914 H6         967.4118  -797.3576  -702.3328 H6            1 RES     
   29915 H6         968.6633  -797.3740  -703.5584 H6            1 RES     
   29916 H6         968.6633  -795.0386  -703.7396 H6            1 RES     
   29917 H6         965.8222  -796.2870  -703.5663 H6            1 RES     
   29918 H6         967.0081  -796.4858  -704.8969 H6            1 RES     
   29919 H6         966.7713  -794.0456  -705.4451 H6            1 RES     
   29920 H6         965.5901  -793.8771  -704.1004 H6            1 RES     
   29921 H6         964.3543  -794.0790  -706.1622 H6            1 RES     
   29922 H6         964.0337  -795.4841  -705.1180 H6            1 RES     
   29923 H6         964.2226  -796.1267  -707.4985 H6            1 RES     
   29924 H6         965.4595  -796.9450  -706.5047 H6            1 RES     
   29925 H6         967.2166  -795.3959  -707.2968 H6            1 RES     
   29926 H6         966.3832  -796.2278  -708.6494 H6            1 RES     
   29927 H6         965.8224  -793.3449  -707.6838 H6            1 RES     
   29928 H6         964.9929  -794.1478  -709.0656 H6            1 RES     
   29929 H6         966.8069  -792.5449  -709.7049 H6            1 RES     
   29930 H6         968.0082  -793.5274  -708.7915 H6            1 RES     
   29931 H6         967.5727  -795.4633  -710.3982 H6            1 RES     
   29932 H6         966.3122  -794.4618  -711.2072 H6            1 RES     
   29933 H6         968.0473  -792.7963  -711.8873 H6            1 RES     
   29934 H6         968.3516  -794.4496  -712.5299 H6            1 RES     
   29935 H6         969.8038  -793.1899  -710.1127 H6            1 RES     
   29936 H6         970.0462  -794.8689  -710.7474 H6            1 RES     
   29937 H6         970.4571  -793.4364  -711.7644 H6            1 RES     
   29938 H6         967.2573  -793.4160  -702.6923 H6            1 RES     
   29939 H6         968.3745  -794.0856  -701.5503 H6            1 RES     
   29940 H6         965.4798  -793.7568  -701.3149 H6            1 RES     
   29941 H6         965.7587  -795.5336  -701.3714 H6            1 RES     
   29942 H6         967.1629  -793.4961  -699.4644 H6            1 RES     
   29943 H6         967.5247  -795.2005  -699.6916 H6            1 RES     
   29944 H6         965.3744  -795.9482  -698.9144 H6            1 RES     
   29945 H6         966.4253  -795.1595  -697.7211 H6            1 RES     
   29946 H6         965.1895  -793.0970  -697.8238 H6            1 RES     
   29947 H6         964.0151  -793.7712  -699.0263 H6            1 RES     
   29948 H6         963.3708  -795.5811  -697.4720 H6            1 RES     
   29949 H6         964.5957  -795.0763  -696.2585 H6            1 RES     
   29950 H6         962.2993  -794.4131  -695.6438 H6            1 RES     
   29951 H6         962.1743  -793.3716  -697.1105 H6            1 RES     
   29952 H6         964.1089  -791.9805  -696.2159 H6            1 RES     
   29953 H6         962.7649  -792.0829  -695.0291 H6            1 RES     
   29954 H6         964.2344  -793.0999  -694.8010 H6            1 RES     
   29955 C0         969.8094  -798.7617  -701.6297 C0            1 RES     
   29956 C0         968.9734  -799.9256  -702.3315 C0            1 RES     
   29957 C0         969.4673  -801.2693  -701.6968 C0            1 RES     
   29958 C0         968.9938  -802.5546  -702.4052 C0            1 RES     
   29959 C0         969.4827  -803.8504  -701.7343 C0            1 RES     
   29960 C0         971.0096  -804.0253  -701.6513 C0            1 RES     
   29961 C0         971.7562  -803.8944  -702.9892 C0            1 RES     
   29962 C0         971.2699  -804.8854  -704.0613 C0            1 RES     
   29963 C0         972.0224  -804.7382  -705.3937 C0            1 RES     
   29964 C0         973.5062  -805.1342  -705.2904 C0            1 RES     
   29965 C0         974.2302  -805.1080  -706.6455 C0            1 RES     
   29966 C0         974.3361  -803.7061  -707.2461 C0            1 RES     
   29967 C0         967.3996  -799.9311  -702.5320 C0            1 RES     
   29968 C0         966.4173  -800.0478  -701.3322 C0            1 RES     
   29969 C0         965.7113  -798.7159  -701.0212 C0            1 RES     
   29970 C0         964.7754  -798.7045  -699.8237 C0            1 RES     
   29971 C0         963.4454  -799.4283  -699.9798 C0            1 RES     
   29972 C0         962.6161  -799.1271  -698.7148 C0            1 RES     
   29973 C0         961.1787  -799.6488  -698.7591 C0            1 RES     
   29974 C0         960.3270  -798.9171  -699.7975 C0            1 RES     
   29975 H6         970.0853  -799.0919  -700.6012 H6            1 RES     
   29976 H6         970.8042  -798.8026  -702.1283 H6            1 RES     
   29977 H6         969.3324  -799.9069  -703.3864 H6            1 RES     
   29978 H6         969.1415  -801.3105  -700.6349 H6            1 RES     
   29979 H6         970.5784  -801.2638  -701.7132 H6            1 RES     
   29980 H6         969.3146  -802.5276  -703.4677 H6            1 RES     
   29981 H6         967.8894  -802.6270  -702.3734 H6            1 RES     
   29982 H6         969.0526  -804.7057  -702.2979 H6            1 RES     
   29983 H6         969.0706  -803.9061  -700.7027 H6            1 RES     
   29984 H6         971.2140  -805.0279  -701.2158 H6            1 RES     
   29985 H6         971.4270  -803.2728  -700.9487 H6            1 RES     
   29986 H6         971.6496  -802.8577  -703.3743 H6            1 RES     
   29987 H6         972.8302  -804.0662  -702.7723 H6            1 RES     
   29988 H6         970.1991  -804.6861  -704.2752 H6            1 RES     
   29989 H6         971.3621  -805.9294  -703.6911 H6            1 RES     
   29990 H6         971.5348  -805.4119  -706.1315 H6            1 RES     
   29991 H6         971.9143  -803.6927  -705.7527 H6            1 RES     
   29992 H6         974.0478  -804.4689  -704.5867 H6            1 RES     
   29993 H6         973.5596  -806.1740  -704.9003 H6            1 RES     
   29994 H6         973.7137  -805.7833  -707.3617 H6            1 RES     
   29995 H6         975.2618  -805.4916  -706.4911 H6            1 RES     
   29996 H6         973.3349  -803.2880  -707.4737 H6            1 RES     
   29997 H6         974.8693  -803.0279  -706.5462 H6            1 RES     
   29998 H6         974.9091  -803.7569  -708.1958 H6            1 RES     
   29999 H6         967.2017  -800.8204  -703.1581 H6            1 RES     
   30000 H6         967.0499  -799.1755  -703.2602 H6            1 RES     
   30001 H6         965.5935  -800.7311  -701.6350 H6            1 RES     
   30002 H6         966.9177  -800.5002  -700.4522 H6            1 RES     
   30003 H6         965.1752  -798.3444  -701.9239 H6            1 RES     
   30004 H6         966.4457  -797.9696  -700.7392 H6            1 RES     
   30005 H6         965.3179  -799.0489  -698.9165 H6            1 RES     
   30006 H6         964.4942  -797.6461  -699.6969 H6            1 RES     
   30007 H6         962.9423  -799.0215  -700.8825 H6            1 RES     
   30008 H6         963.5950  -800.5209  -700.1050 H6            1 RES     
   30009 H6         963.1369  -799.5842  -697.8447 H6            1 RES     
   30010 H6         962.5671  -798.0279  -698.5375 H6            1 RES     
   30011 H6         960.7262  -799.4560  -697.7616 H6            1 RES     
   30012 H6         961.1745  -800.7410  -698.9457 H6            1 RES     
   30013 H6         960.6975  -799.0982  -700.8260 H6            1 RES     
   30014 H6         959.2812  -799.2818  -699.7361 H6            1 RES     
   30015 H6         960.3300  -797.8233  -699.5965 H6            1 RES     
   30016 C0         979.2824  -791.9298  -708.1653 C0            1 RES     
   30017 C1         978.4945  -792.1125  -706.8494 C1            1 RES     
   30018 C1         979.2043  -791.7141  -705.7620 C1            1 RES     
   30019 S2         978.4146  -791.9844  -704.3109 S2            1 RES     
   30020 C1         977.0837  -792.6983  -705.0917 C1            1 RES     
   30021 C1         977.2818  -792.7160  -706.4767 C1            1 RES     
   30022 C1         980.4789  -791.2791  -706.1850 C1            1 RES     
   30023 C1         980.5930  -791.4665  -707.5276 C1            1 RES     
   30024 C1         981.8740  -791.1935  -707.9922 C1            1 RES     
   30025 C1         982.6993  -790.7592  -706.9412 C1            1 RES     
   30026 S2         981.8706  -790.7284  -705.4593 S2            1 RES     
   30027 H3         976.5854  -793.1955  -707.1380 H3            1 RES     
   30028 H3         982.1909  -791.3061  -709.0221 H3            1 RES     
   30029 N4         985.9813  -788.9499  -706.8729 N4            1 RES     
   30030 C1         984.6369  -789.1842  -706.8314 C1            1 RES     
   30031 C1         984.1283  -790.4799  -707.0270 C1            1 RES     
   30032 C1         985.0365  -791.5183  -707.2409 C1            1 RES     
   30033 N4         984.6821  -792.8209  -707.3862 N4            1 RES     
   30034 S2         986.1485  -793.5682  -707.5389 S2            1 RES     
   30035 N4         987.2374  -792.3265  -707.4348 N4            1 RES     
   30036 C1         986.4287  -791.2523  -707.2599 C1            1 RES     
   30037 C1         986.8841  -789.9479  -707.0871 C1            1 RES     
   30038 H5         983.9572  -788.3552  -706.6540 H5            1 RES     
   30039 C0         978.8220  -790.8431  -709.1996 C0            1 RES     
   30040 C0         978.9051  -789.2713  -709.1318 C0            1 RES     
   30041 C0         978.1606  -788.7667  -710.4177 C0            1 RES     
   30042 C0         978.1450  -787.2523  -710.6593 C0            1 RES     
   30043 C0         977.3417  -786.8683  -711.9242 C0            1 RES     
   30044 C0         977.8881  -787.4174  -713.2606 C0            1 RES     
   30045 C0         979.3581  -787.0677  -713.5521 C0            1 RES     
   30046 C0         979.6277  -785.5524  -713.5582 C0            1 RES     
   30047 C0         981.1054  -785.2080  -713.7936 C0            1 RES     
   30048 C0         981.5960  -785.5771  -715.2038 C0            1 RES     
   30049 C0         983.0410  -785.1244  -715.4670 C0            1 RES     
   30050 C0         984.0670  -785.8462  -714.5926 C0            1 RES     
   30051 C0         978.4228  -788.5268  -707.8441 C0            1 RES     
   30052 C0         976.9164  -788.5915  -707.4452 C0            1 RES     
   30053 C0         976.7990  -789.2120  -706.0497 C0            1 RES     
   30054 C0         975.4214  -789.6755  -705.5850 C0            1 RES     
   30055 C0         974.4826  -788.5954  -705.0677 C0            1 RES     
   30056 C0         973.1796  -789.2846  -704.6111 C0            1 RES     
   30057 C0         972.1992  -788.3601  -703.8856 C0            1 RES     
   30058 C0         972.7258  -787.9122  -702.5205 C0            1 RES     
   30059 H6         977.7993  -791.0374  -709.3998 H6            1 RES     
   30060 H6         979.3938  -791.0863  -710.1235 H6            1 RES     
   30061 H6         979.9823  -789.0063  -709.2214 H6            1 RES     
   30062 H6         977.1014  -789.1038  -710.3838 H6            1 RES     
   30063 H6         978.6382  -789.2499  -711.2968 H6            1 RES     
   30064 H6         979.1825  -786.8656  -710.7222 H6            1 RES     
   30065 H6         977.6377  -786.7523  -709.8096 H6            1 RES     
   30066 H6         977.2988  -785.7611  -711.9826 H6            1 RES     
   30067 H6         976.2915  -787.2184  -711.8123 H6            1 RES     
   30068 H6         977.2519  -787.0197  -714.0825 H6            1 RES     
   30069 H6         977.7848  -788.5233  -713.2812 H6            1 RES     
   30070 H6         980.0075  -787.5550  -712.7945 H6            1 RES     
   30071 H6         979.6098  -787.5006  -714.5424 H6            1 RES     
   30072 H6         979.3690  -785.1387  -712.5622 H6            1 RES     
   30073 H6         978.9929  -785.0506  -714.3209 H6            1 RES     
   30074 H6         981.2182  -784.1095  -713.6647 H6            1 RES     
   30075 H6         981.7146  -785.7141  -713.0155 H6            1 RES     
   30076 H6         981.5273  -786.6713  -715.3751 H6            1 RES     
   30077 H6         980.9414  -785.0647  -715.9422 H6            1 RES     
   30078 H6         983.1262  -784.0265  -715.3132 H6            1 RES     
   30079 H6         983.2837  -785.3440  -716.5291 H6            1 RES     
   30080 H6         983.9107  -785.6236  -713.5179 H6            1 RES     
   30081 H6         984.0041  -786.9433  -714.7548 H6            1 RES     
   30082 H6         985.0874  -785.5048  -714.8657 H6            1 RES     
   30083 H6         978.6757  -787.4516  -707.9635 H6            1 RES     
   30084 H6         979.0766  -788.8342  -706.9999 H6            1 RES     
   30085 H6         976.4729  -787.5711  -707.4099 H6            1 RES     
   30086 H6         976.3505  -789.1886  -708.1888 H6            1 RES     
   30087 H6         977.3072  -788.6023  -705.2732 H6            1 RES     
   30088 H6         977.3416  -790.1286  -706.1431 H6            1 RES     
   30089 H6         974.9514  -790.2555  -706.3830 H6            1 RES     
   30090 H6         975.5961  -790.3717  -704.7334 H6            1 RES     
   30091 H6         974.9901  -788.1018  -704.2120 H6            1 RES     
   30092 H6         974.2642  -787.8381  -705.8501 H6            1 RES     
   30093 H6         972.6781  -789.7031  -705.5131 H6            1 RES     
   30094 H6         973.4073  -790.1353  -703.9291 H6            1 RES     
   30095 H6         971.2630  -788.9337  -703.7075 H6            1 RES     
   30096 H6         971.9577  -787.4810  -704.5193 H6            1 RES     
   30097 H6         973.6419  -787.2974  -702.6199 H6            1 RES     
   30098 H6         971.9537  -787.3038  -702.0072 H6            1 RES     
   30099 H6         972.9508  -788.7996  -701.8874 H6            1 RES     
   30100 C0         979.3527  -793.3718  -708.8067 C0            1 RES     
   30101 C0         978.6239  -793.8284  -710.1508 C0            1 RES     
   30102 C0         978.5180  -795.3895  -710.0881 C0            1 RES     
   30103 C0         978.0886  -796.0814  -711.3977 C0            1 RES     
   30104 C0         977.9747  -797.6119  -711.2838 C0            1 RES     
   30105 C0         979.2665  -798.3511  -710.8915 C0            1 RES     
   30106 C0         980.4870  -798.0489  -711.7768 C0            1 RES     
   30107 C0         980.2539  -798.3562  -713.2666 C0            1 RES     
   30108 C0         981.4811  -798.0440  -714.1382 C0            1 RES     
   30109 C0         982.6775  -798.9654  -713.8400 C0            1 RES     
   30110 C0         983.8613  -798.7395  -714.7933 C0            1 RES     
   30111 C0         984.5021  -797.3596  -714.6432 C0            1 RES     
   30112 C0         977.2964  -793.1873  -710.7370 C0            1 RES     
   30113 C0         975.9229  -793.3430  -710.0249 C0            1 RES     
   30114 C0         975.4656  -792.0413  -709.3424 C0            1 RES     
   30115 C0         974.1629  -792.1027  -708.5622 C0            1 RES     
   30116 C0         972.8764  -792.1866  -709.3716 C0            1 RES     
   30117 C0         971.7064  -792.0600  -708.3746 C0            1 RES     
   30118 C0         970.3250  -791.9688  -709.0256 C0            1 RES     
   30119 C0         970.1343  -790.6656  -709.8031 C0            1 RES     
   30120 H6         979.1223  -794.1138  -708.0071 H6            1 RES     
   30121 H6         980.4274  -793.5992  -708.9892 H6            1 RES     
   30122 H6         979.3624  -793.5790  -710.9473 H6            1 RES     
   30123 H6         977.8014  -795.6729  -709.2872 H6            1 RES     
   30124 H6         979.5176  -795.7862  -709.8081 H6            1 RES     
   30125 H6         978.7978  -795.8082  -712.2069 H6            1 RES     
   30126 H6         977.0742  -795.7503  -711.6931 H6            1 RES     
   30127 H6         977.6224  -797.9983  -712.2640 H6            1 RES     
   30128 H6         977.1897  -797.8657  -710.5379 H6            1 RES     
   30129 H6         979.0560  -799.4426  -710.9203 H6            1 RES     
   30130 H6         979.5302  -798.0968  -709.8427 H6            1 RES     
   30131 H6         980.7726  -796.9812  -711.6640 H6            1 RES     
   30132 H6         981.3226  -798.6658  -711.3880 H6            1 RES     
   30133 H6         979.4261  -797.7177  -713.6396 H6            1 RES     
   30134 H6         979.9597  -799.4198  -713.3992 H6            1 RES     
   30135 H6         981.1860  -798.1922  -715.1998 H6            1 RES     
   30136 H6         981.7571  -796.9771  -713.9996 H6            1 RES     
   30137 H6         983.0323  -798.8324  -712.7972 H6            1 RES     
   30138 H6         982.3417  -800.0181  -713.9640 H6            1 RES     
   30139 H6         983.5316  -798.8860  -715.8448 H6            1 RES     
   30140 H6         984.6367  -799.5021  -714.5645 H6            1 RES     
   30141 H6         983.7903  -796.5529  -714.9107 H6            1 RES     
   30142 H6         984.8537  -797.2110  -713.6000 H6            1 RES     
   30143 H6         985.3750  -797.2850  -715.3253 H6            1 RES     
   30144 H6         977.1684  -793.6665  -711.7250 H6            1 RES     
   30145 H6         977.4374  -792.1546  -711.1076 H6            1 RES     
   30146 H6         975.1549  -793.5268  -710.8083 H6            1 RES     
   30147 H6         975.9241  -794.2214  -709.3483 H6            1 RES     
   30148 H6         975.4235  -791.2119  -710.0845 H6            1 RES     
   30149 H6         976.1759  -791.7632  -708.5719 H6            1 RES     
   30150 H6         974.2148  -792.9126  -707.8024 H6            1 RES     
   30151 H6         974.0965  -791.1292  -708.0490 H6            1 RES     
   30152 H6         972.8716  -791.3389  -710.0889 H6            1 RES     
   30153 H6         972.8170  -793.1420  -709.9334 H6            1 RES     
   30154 H6         971.7286  -792.9465  -707.7032 H6            1 RES     
   30155 H6         971.8366  -791.1539  -707.7391 H6            1 RES     
   30156 H6         969.5724  -791.9814  -708.2068 H6            1 RES     
   30157 H6         970.1525  -792.8462  -709.6799 H6            1 RES     
   30158 H6         970.8285  -790.6022  -710.6645 H6            1 RES     
   30159 H6         969.0957  -790.6188  -710.1901 H6            1 RES     
   30160 H6         970.3004  -789.7914  -709.1360 H6            1 RES     
   30161 C0         991.8875  -788.6809  -708.8012 C0            1 RES     
   30162 C1         990.6273  -789.0051  -707.9690 C1            1 RES     
   30163 C1         990.9226  -789.2969  -706.6756 C1            1 RES     
   30164 S2         989.5884  -789.7429  -705.7682 S2            1 RES     
   30165 C1         988.5484  -789.6020  -707.1059 C1            1 RES     
   30166 C1         989.2648  -789.2110  -708.2424 C1            1 RES     
   30167 C1         992.3228  -789.2419  -706.5050 C1            1 RES     
   30168 C1         992.9100  -788.9813  -707.7042 C1            1 RES     
   30169 C1         994.2964  -789.0542  -707.6406 C1            1 RES     
   30170 C1         994.7169  -789.3448  -706.3318 C1            1 RES     
   30171 S2         993.4025  -789.5269  -705.2722 S2            1 RES     
   30172 H3         988.7964  -789.1414  -709.2058 H3            1 RES     
   30173 H3         994.9584  -788.9115  -708.4863 H3            1 RES     
   30174 N4         998.0209  -789.0079  -704.5940 N4            1 RES     
   30175 C1         996.7525  -788.7320  -705.0173 C1            1 RES     
   30176 C1         996.0882  -789.5974  -705.9037 C1            1 RES     
   30177 C1         996.7528  -790.7532  -706.3175 C1            1 RES     
   30178 N4         996.2049  -791.6983  -707.1237 N4            1 RES     
   30179 S2         997.4083  -792.8283  -707.2072 S2            1 RES     
   30180 N4         998.6147  -792.1906  -706.2711 N4            1 RES     
   30181 C1         998.0620  -791.0268  -705.8481 C1            1 RES     
   30182 C1         998.6898  -790.1266  -704.9912 C1            1 RES     
   30183 H5         996.2598  -787.8282  -704.6694 H5            1 RES     
   30184 C0         992.1231  -787.2159  -709.3119 C0            1 RES     
   30185 C0         992.5190  -785.9120  -708.5212 C0            1 RES     
   30186 C0         992.4706  -784.7588  -709.5843 C0            1 RES     
   30187 C0         992.8871  -783.3612  -709.1091 C0            1 RES     
   30188 C0         992.7513  -782.2979  -710.2244 C0            1 RES     
   30189 C0         993.6418  -782.5103  -711.4684 C0            1 RES     
   30190 C0         995.1460  -782.6460  -711.1730 C0            1 RES     
   30191 C0         995.7248  -781.4338  -710.4220 C0            1 RES     
   30192 C0         997.2126  -781.5962  -710.0792 C0            1 RES     
   30193 C0         998.1221  -781.6071  -711.3194 C0            1 RES     
   30194 C0         999.6157  -781.6545  -710.9598 C0            1 RES     
   30195 C0        1000.0287  -782.9563  -710.2719 C0            1 RES     
   30196 C0         991.7481  -785.5374  -707.2134 C0            1 RES     
   30197 C0         990.2324  -785.1793  -707.2978 C0            1 RES     
   30198 C0         989.4426  -786.1548  -706.4199 C0            1 RES     
   30199 C0         987.9277  -786.2112  -706.5949 C0            1 RES     
   30200 C0         987.1260  -785.1131  -705.9117 C0            1 RES     
   30201 C0         985.6309  -785.3889  -706.1761 C0            1 RES     
   30202 C0         984.6758  -784.4820  -705.3967 C0            1 RES     
   30203 C0         984.7095  -784.7600  -703.8924 C0            1 RES     
   30204 H6         991.2456  -786.9399  -709.8387 H6            1 RES     
   30205 H6         992.9422  -787.3160  -710.0595 H6            1 RES     
   30206 H6         993.5745  -786.0467  -708.1951 H6            1 RES     
   30207 H6         991.4372  -784.6736  -709.9858 H6            1 RES     
   30208 H6         993.1349  -785.0472  -710.4269 H6            1 RES     
   30209 H6         993.9236  -783.3856  -708.7156 H6            1 RES     
   30210 H6         992.2116  -783.0373  -708.2919 H6            1 RES     
   30211 H6         992.9812  -781.3055  -709.7845 H6            1 RES     
   30212 H6         991.6924  -782.2543  -710.5629 H6            1 RES     
   30213 H6         993.4845  -781.6495  -712.1560 H6            1 RES     
   30214 H6         993.3127  -783.4207  -712.0135 H6            1 RES     
   30215 H6         995.3205  -783.5668  -710.5774 H6            1 RES     
   30216 H6         995.6634  -782.7698  -712.1470 H6            1 RES     
   30217 H6         995.1947  -781.3259  -709.4538 H6            1 RES     
   30218 H6         995.5685  -780.5039  -711.0115 H6            1 RES     
   30219 H6         997.5061  -780.7331  -709.4427 H6            1 RES     
   30220 H6         997.3391  -782.5256  -709.4851 H6            1 RES     
   30221 H6         997.8856  -782.4680  -711.9784 H6            1 RES     
   30222 H6         997.9410  -780.6694  -711.8887 H6            1 RES     
   30223 H6         999.8746  -780.7904  -710.3097 H6            1 RES     
   30224 H6        1000.2005  -781.5658  -711.9007 H6            1 RES     
   30225 H6         999.5167  -783.0782  -709.2962 H6            1 RES     
   30226 H6         999.7931  -783.8248  -710.9230 H6            1 RES     
   30227 H6        1001.1224  -782.9407  -710.0826 H6            1 RES     
   30228 H6         992.2589  -784.6599  -706.7623 H6            1 RES     
   30229 H6         991.9324  -786.3343  -706.4614 H6            1 RES     
   30230 H6         990.0488  -784.1475  -706.9225 H6            1 RES     
   30231 H6         989.8867  -785.2307  -708.3502 H6            1 RES     
   30232 H6         989.7266  -786.0828  -705.3489 H6            1 RES     
   30233 H6         989.7606  -787.1132  -706.7718 H6            1 RES     
   30234 H6         987.6928  -786.2641  -707.6608 H6            1 RES     
   30235 H6         987.5953  -787.1711  -706.1382 H6            1 RES     
   30236 H6         987.3527  -785.1685  -704.8258 H6            1 RES     
   30237 H6         987.4058  -784.1084  -706.2932 H6            1 RES     
   30238 H6         985.4445  -785.2549  -707.2658 H6            1 RES     
   30239 H6         985.3781  -786.4430  -705.9199 H6            1 RES     
   30240 H6         983.6431  -784.6961  -705.7500 H6            1 RES     
   30241 H6         984.9037  -783.4150  -705.6025 H6            1 RES     
   30242 H6         985.7026  -784.5302  -703.4586 H6            1 RES     
   30243 H6         983.9537  -784.1290  -703.3822 H6            1 RES     
   30244 H6         984.4654  -785.8279  -703.6952 H6            1 RES     
   30245 C0         991.8825  -789.7306  -709.9818 C0            1 RES     
   30246 C0         991.6581  -789.3933  -711.5252 C0            1 RES     
   30247 C0         991.1931  -790.7248  -712.2059 C0            1 RES     
   30248 C0         991.1703  -790.7123  -713.7477 C0            1 RES     
   30249 C0         990.6849  -792.0321  -714.3729 C0            1 RES     
   30250 C0         991.5204  -793.2795  -714.0341 C0            1 RES     
   30251 C0         993.0243  -793.1595  -714.3318 C0            1 RES     
   30252 C0         993.3327  -792.8245  -715.8018 C0            1 RES     
   30253 C0         994.8394  -792.7030  -716.0815 C0            1 RES     
   30254 C0         995.5863  -794.0404  -715.9303 C0            1 RES     
   30255 C0         997.0672  -793.9493  -716.3300 C0            1 RES     
   30256 C0         997.8861  -793.0440  -715.4097 C0            1 RES     
   30257 C0         990.8451  -788.1504  -712.0831 C0            1 RES     
   30258 C0         989.3050  -788.0280  -711.9070 C0            1 RES     
   30259 C0         988.9174  -786.9719  -710.8563 C0            1 RES     
   30260 C0         987.4346  -786.8174  -710.5608 C0            1 RES     
   30261 C0         986.5852  -786.1388  -711.6262 C0            1 RES     
   30262 C0         985.1775  -785.9455  -711.0261 C0            1 RES     
   30263 C0         984.2200  -785.1355  -711.9020 C0            1 RES     
   30264 C0         984.6435  -783.6711  -712.0252 C0            1 RES     
   30265 H6         991.1986  -790.5636  -709.6964 H6            1 RES     
   30266 H6         992.8631  -790.2577  -709.9583 H6            1 RES     
   30267 H6         992.6852  -789.1730  -711.8976 H6            1 RES     
   30268 H6         990.1764  -790.9839  -711.8394 H6            1 RES     
   30269 H6         991.8878  -791.5304  -711.8844 H6            1 RES     
   30270 H6         992.1815  -790.4564  -714.1279 H6            1 RES     
   30271 H6         990.4540  -789.9525  -714.1159 H6            1 RES     
   30272 H6         990.6694  -791.8979  -715.4757 H6            1 RES     
   30273 H6         989.6352  -792.2216  -714.0579 H6            1 RES     
   30274 H6         991.1019  -794.1353  -714.6077 H6            1 RES     
   30275 H6         991.4006  -793.5191  -712.9560 H6            1 RES     
   30276 H6         993.4715  -792.3808  -713.6777 H6            1 RES     
   30277 H6         993.4810  -794.1330  -714.0603 H6            1 RES     
   30278 H6         992.8815  -791.8406  -716.0480 H6            1 RES     
   30279 H6         992.8864  -793.5896  -716.4732 H6            1 RES     
   30280 H6         994.9597  -792.3559  -717.1308 H6            1 RES     
   30281 H6         995.2678  -791.9304  -715.4083 H6            1 RES     
   30282 H6         995.5233  -794.4160  -714.8883 H6            1 RES     
   30283 H6         995.1019  -794.7838  -716.6004 H6            1 RES     
   30284 H6         997.1530  -793.5915  -717.3791 H6            1 RES     
   30285 H6         997.5007  -794.9713  -716.2767 H6            1 RES     
   30286 H6         997.5343  -791.9938  -715.4595 H6            1 RES     
   30287 H6         997.8235  -793.4051  -714.3611 H6            1 RES     
   30288 H6         998.9495  -793.0635  -715.7283 H6            1 RES     
   30289 H6         991.0123  -788.1759  -713.1756 H6            1 RES     
   30290 H6         991.3452  -787.1818  -711.8948 H6            1 RES     
   30291 H6         988.8860  -787.6345  -712.8593 H6            1 RES     
   30292 H6         988.8459  -789.0212  -711.7273 H6            1 RES     
   30293 H6         989.3547  -785.9835  -711.1246 H6            1 RES     
   30294 H6         989.3108  -787.2583  -709.8874 H6            1 RES     
   30295 H6         987.0035  -787.7988  -710.2660 H6            1 RES     
   30296 H6         987.3897  -786.1296  -709.7004 H6            1 RES     
   30297 H6         987.0502  -785.1567  -711.8553 H6            1 RES     
   30298 H6         986.5409  -786.7481  -712.5529 H6            1 RES     
   30299 H6         984.7376  -786.9516  -710.8491 H6            1 RES     
   30300 H6         985.2452  -785.4302  -710.0403 H6            1 RES     
   30301 H6         983.2241  -785.1538  -711.4073 H6            1 RES     
   30302 H6         984.1283  -785.6041  -712.9020 H6            1 RES     
   30303 H6         985.6153  -783.5728  -712.5486 H6            1 RES     
   30304 H6         983.8786  -783.1164  -712.6064 H6            1 RES     
   30305 H6         984.7238  -783.2074  -711.0176 H6            1 RES     
   30306 C0        1004.1098  -790.2725  -704.5664 C0            1 RES     
   30307 C1        1002.5864  -790.3786  -704.3344 C1            1 RES     
   30308 C1        1002.2779  -791.1861  -703.2865 C1            1 RES     
   30309 S2        1000.6319  -791.3962  -703.0649 S2            1 RES     
   30310 C1        1000.2596  -790.4310  -704.4142 C1            1 RES     
   30311 C1        1001.4317  -789.9627  -705.0180 C1            1 RES     
   30312 C1        1003.4731  -791.7106  -702.7488 C1            1 RES     
   30313 C1        1004.5256  -791.2859  -703.4991 C1            1 RES     
   30314 C1        1005.7221  -791.8787  -703.1141 C1            1 RES     
   30315 C1        1005.5196  -792.7364  -702.0197 C1            1 RES     
   30316 S2        1003.8901  -792.7785  -701.5438 S2            1 RES     
   30317 H3        1001.4070  -789.3979  -705.9305 H3            1 RES     
   30318 H3        1006.6766  -791.7056  -703.5966 H3            1 RES     
   30319 N4        1007.8619  -794.2566  -699.5192 N4            1 RES     
   30320 C1        1006.9568  -793.4073  -700.0880 C1            1 RES     
   30321 C1        1006.5198  -793.6050  -701.4093 C1            1 RES     
   30322 C1        1007.0195  -794.7038  -702.1105 C1            1 RES     
   30323 N4        1006.6372  -795.0408  -703.3690 N4            1 RES     
   30324 S2        1007.4939  -796.4289  -703.6357 S2            1 RES     
   30325 N4        1008.3449  -796.6437  -702.2328 N4            1 RES     
   30326 C1        1007.9434  -795.5822  -701.4908 C1            1 RES     
   30327 C1        1008.3670  -795.3308  -700.1885 C1            1 RES     
   30328 H5        1006.5807  -792.5664  -699.5118 H5            1 RES     
   30329 C0        1004.8451  -788.9167  -704.2771 C0            1 RES     
   30330 C0        1005.1771  -788.2087  -702.9094 C0            1 RES     
   30331 C0        1005.8065  -786.8272  -703.3064 C0            1 RES     
   30332 C0        1006.3015  -785.9368  -702.1599 C0            1 RES     
   30333 C0        1006.8535  -784.5829  -702.6650 C0            1 RES     
   30334 C0        1008.0896  -784.6625  -703.5879 C0            1 RES     
   30335 C0        1009.2864  -785.4329  -703.0028 C0            1 RES     
   30336 C0        1009.7770  -784.8575  -701.6624 C0            1 RES     
   30337 C0        1010.9347  -785.6614  -701.0534 C0            1 RES     
   30338 C0        1012.2309  -785.5752  -701.8768 C0            1 RES     
   30339 C0        1013.4126  -786.2877  -701.1999 C0            1 RES     
   30340 C0        1013.2229  -787.8013  -701.0942 C0            1 RES     
   30341 C0        1004.0587  -788.0549  -701.8274 C0            1 RES     
   30342 C0        1002.8181  -787.1611  -702.1350 C0            1 RES     
   30343 C0        1001.5524  -788.0180  -702.0353 C0            1 RES     
   30344 C0        1000.2562  -787.4512  -702.6074 C0            1 RES     
   30345 C0         999.5157  -786.4451  -701.7386 C0            1 RES     
   30346 C0         998.2237  -786.0442  -702.4810 C0            1 RES     
   30347 C0         997.2661  -785.1804  -701.6569 C0            1 RES     
   30348 C0         996.6444  -785.9530  -700.4917 C0            1 RES     
   30349 H6        1004.3296  -788.1746  -704.8315 H6            1 RES     
   30350 H6        1005.8474  -789.0448  -704.7447 H6            1 RES     
   30351 H6        1005.9615  -788.8245  -702.4154 H6            1 RES     
   30352 H6        1005.0603  -786.2362  -703.8812 H6            1 RES     
   30353 H6        1006.6663  -787.0284  -703.9808 H6            1 RES     
   30354 H6        1007.0670  -786.4737  -701.5636 H6            1 RES     
   30355 H6        1005.4495  -785.6921  -701.4940 H6            1 RES     
   30356 H6        1007.1060  -783.9620  -701.7808 H6            1 RES     
   30357 H6        1006.0506  -784.0403  -703.2116 H6            1 RES     
   30358 H6        1008.4096  -783.6236  -703.8258 H6            1 RES     
   30359 H6        1007.8079  -785.1400  -704.5507 H6            1 RES     
   30360 H6        1009.0044  -786.4982  -702.8660 H6            1 RES     
   30361 H6        1010.1030  -785.3927  -703.7533 H6            1 RES     
   30362 H6        1008.9478  -784.9049  -700.9275 H6            1 RES     
   30363 H6        1010.0748  -783.7931  -701.7853 H6            1 RES     
   30364 H6        1011.1382  -785.2434  -700.0434 H6            1 RES     
   30365 H6        1010.6086  -786.7160  -700.9343 H6            1 RES     
   30366 H6        1012.0876  -786.0044  -702.8901 H6            1 RES     
   30367 H6        1012.5003  -784.5020  -701.9853 H6            1 RES     
   30368 H6        1013.5801  -785.8609  -700.1869 H6            1 RES     
   30369 H6        1014.3235  -786.1000  -701.8084 H6            1 RES     
   30370 H6        1012.3560  -788.0565  -700.4520 H6            1 RES     
   30371 H6        1013.0757  -788.2402  -702.1039 H6            1 RES     
   30372 H6        1014.1285  -788.2541  -700.6388 H6            1 RES     
   30373 H6        1004.5321  -787.6400  -700.9120 H6            1 RES     
   30374 H6        1003.7516  -789.0708  -701.4987 H6            1 RES     
   30375 H6        1002.7355  -786.3323  -701.3965 H6            1 RES     
   30376 H6        1002.9110  -786.7149  -703.1460 H6            1 RES     
   30377 H6        1001.4017  -788.4301  -701.0153 H6            1 RES     
   30378 H6        1001.7620  -788.8406  -702.6854 H6            1 RES     
   30379 H6        1000.4531  -787.0423  -703.6015 H6            1 RES     
   30380 H6         999.5676  -788.3165  -702.7396 H6            1 RES     
   30381 H6         999.2797  -786.9514  -700.7786 H6            1 RES     
   30382 H6        1000.1378  -785.5478  -701.5358 H6            1 RES     
   30383 H6         998.5145  -785.4833  -703.3981 H6            1 RES     
   30384 H6         997.6640  -786.9508  -702.8059 H6            1 RES     
   30385 H6         996.4355  -784.8648  -702.3259 H6            1 RES     
   30386 H6         997.7867  -784.2710  -701.2898 H6            1 RES     
   30387 H6         997.4116  -786.2682  -699.7574 H6            1 RES     
   30388 H6         995.9092  -785.3074  -699.9696 H6            1 RES     
   30389 H6         996.1125  -786.8542  -700.8708 H6            1 RES     
   30390 C0        1004.3359  -790.7692  -706.0489 C0            1 RES     
   30391 C0        1004.8160  -789.8620  -707.2707 C0            1 RES     
   30392 C0        1004.3729  -790.6065  -708.5752 C0            1 RES     
   30393 C0        1004.9603  -790.0543  -709.8898 C0            1 RES     
   30394 C0        1004.4799  -790.8003  -711.1471 C0            1 RES     
   30395 C0        1004.8165  -792.3011  -711.2034 C0            1 RES     
   30396 C0        1006.3024  -792.6455  -711.0083 C0            1 RES     
   30397 C0        1007.2287  -791.9609  -712.0288 C0            1 RES     
   30398 C0        1008.7105  -792.3112  -711.8170 C0            1 RES     
   30399 C0        1009.0216  -793.7924  -712.0972 C0            1 RES     
   30400 C0        1010.5207  -794.1181  -712.0082 C0            1 RES     
   30401 C0        1011.0912  -793.9542  -710.5993 C0            1 RES     
   30402 C0        1004.5844  -788.2976  -707.3972 C0            1 RES     
   30403 C0        1003.1676  -787.6885  -707.5957 C0            1 RES     
   30404 C0        1002.6433  -786.9975  -706.3241 C0            1 RES     
   30405 C0        1001.2378  -786.4230  -706.3913 C0            1 RES     
   30406 C0        1001.0479  -785.1572  -707.2152 C0            1 RES     
   30407 C0         999.5986  -784.6820  -706.9856 C0            1 RES     
   30408 C0         999.2670  -783.3286  -707.6170 C0            1 RES     
   30409 C0        1000.0178  -782.1762  -706.9483 C0            1 RES     
   30410 H6        1003.4289  -791.3370  -706.3620 H6            1 RES     
   30411 H6        1005.0853  -791.5919  -706.0101 H6            1 RES     
   30412 H6        1005.9278  -789.9193  -707.2189 H6            1 RES     
   30413 H6        1003.2640  -790.5846  -708.6468 H6            1 RES     
   30414 H6        1004.6884  -791.6681  -708.4835 H6            1 RES     
   30415 H6        1006.0689  -790.0722  -709.8327 H6            1 RES     
   30416 H6        1004.6336  -789.0082  -710.0477 H6            1 RES     
   30417 H6        1004.9284  -790.2974  -712.0303 H6            1 RES     
   30418 H6        1003.3772  -790.6884  -711.2397 H6            1 RES     
   30419 H6        1004.4783  -792.6888  -712.1893 H6            1 RES     
   30420 H6        1004.2334  -792.8370  -710.4244 H6            1 RES     
   30421 H6        1006.6175  -792.3628  -709.9812 H6            1 RES     
   30422 H6        1006.3878  -793.7477  -711.0975 H6            1 RES     
   30423 H6        1007.1405  -790.8605  -711.9119 H6            1 RES     
   30424 H6        1006.9242  -792.2262  -713.0643 H6            1 RES     
   30425 H6        1009.3065  -791.6926  -712.5228 H6            1 RES     
   30426 H6        1008.9999  -792.0335  -710.7812 H6            1 RES     
   30427 H6        1008.4733  -794.4541  -711.3955 H6            1 RES     
   30428 H6        1008.6874  -794.0255  -713.1317 H6            1 RES     
   30429 H6        1011.0882  -793.4777  -712.7179 H6            1 RES     
   30430 H6        1010.6603  -795.1781  -712.3113 H6            1 RES     
   30431 H6        1011.0293  -792.9009  -710.2589 H6            1 RES     
   30432 H6        1010.5439  -794.6059  -709.8853 H6            1 RES     
   30433 H6        1012.1612  -794.2505  -710.6007 H6            1 RES     
   30434 H6        1005.1567  -788.0031  -708.2960 H6            1 RES     
   30435 H6        1005.1716  -787.7092  -706.6673 H6            1 RES     
   30436 H6        1003.2544  -786.8658  -708.3393 H6            1 RES     
   30437 H6        1002.4672  -788.4404  -708.0124 H6            1 RES     
   30438 H6        1003.3580  -786.2111  -705.9908 H6            1 RES     
   30439 H6        1002.5508  -787.7241  -705.5246 H6            1 RES     
   30440 H6        1000.5199  -787.2147  -706.6972 H6            1 RES     
   30441 H6        1001.0125  -786.1099  -705.3585 H6            1 RES     
   30442 H6        1001.7705  -784.3999  -706.8442 H6            1 RES     
   30443 H6        1001.2370  -785.3469  -708.2924 H6            1 RES     
   30444 H6         998.9135  -785.4511  -707.4053 H6            1 RES     
   30445 H6         999.3864  -784.6025  -705.8945 H6            1 RES     
   30446 H6         998.1797  -783.1506  -707.4649 H6            1 RES     
   30447 H6         999.4737  -783.3541  -708.7053 H6            1 RES     
   30448 H6        1001.1125  -782.2663  -707.0950 H6            1 RES     
   30449 H6         999.6859  -781.2158  -707.3933 H6            1 RES     
   30450 H6         999.7969  -782.1534  -705.8586 H6            1 RES     
   30451 C0        1013.0066  -797.5893  -698.4705 C0            1 RES     
   30452 C1        1011.5321  -797.2031  -698.7203 C1            1 RES     
   30453 C1        1010.6666  -798.1499  -698.2735 C1            1 RES     
   30454 S2        1009.0637  -797.8051  -698.6114 S2            1 RES     
   30455 C1        1009.4746  -796.3683  -699.4225 C1            1 RES     
   30456 C1        1010.8616  -796.1845  -699.4178 C1            1 RES     
   30457 C1        1011.4064  -799.2268  -697.7389 C1            1 RES     
   30458 C1        1012.7344  -798.9861  -697.9101 C1            1 RES     
   30459 C1        1013.5202  -800.0697  -697.5362 C1            1 RES     
   30460 C1        1012.7200  -801.1148  -697.0446 C1            1 RES     
   30461 S2        1011.0692  -800.7188  -697.0855 S2            1 RES     
   30462 H3        1011.3227  -795.3720  -699.9466 H3            1 RES     
   30463 H3        1014.6000  -800.1030  -697.6188 H3            1 RES     
   30464 N4        1013.4931  -804.1508  -694.9866 N4            1 RES     
   30465 C1        1013.0965  -802.8888  -695.3246 C1            1 RES     
   30466 C1        1013.1810  -802.4426  -696.6549 C1            1 RES     
   30467 C1        1013.6587  -803.3324  -697.6186 C1            1 RES     
   30468 N4        1013.7366  -803.0484  -698.9441 N4            1 RES     
   30469 S2        1014.2985  -804.4691  -699.5746 S2            1 RES     
   30470 N4        1014.4601  -805.4515  -698.2528 N4            1 RES     
   30471 C1        1014.0458  -804.6440  -697.2454 C1            1 RES     
   30472 C1        1013.9686  -805.0323  -695.9105 C1            1 RES     
   30473 H5        1012.7209  -802.2238  -694.5517 H5            1 RES     
   30474 C0        1013.8499  -796.7875  -697.4175 C0            1 RES     
   30475 C0        1013.7664  -796.7705  -695.8444 C0            1 RES     
   30476 C0        1014.7902  -795.6704  -695.3927 C0            1 RES     
   30477 C0        1014.9795  -795.4790  -693.8828 C0            1 RES     
   30478 C0        1015.9704  -794.3370  -693.5560 C0            1 RES     
   30479 C0        1017.4184  -794.5395  -694.0543 C0            1 RES     
   30480 C0        1018.0865  -795.8458  -693.5902 C0            1 RES     
   30481 C0        1018.1261  -795.9919  -692.0586 C0            1 RES     
   30482 C0        1018.7425  -797.3211  -691.5995 C0            1 RES     
   30483 C0        1020.2418  -797.4368  -691.9223 C0            1 RES     
   30484 C0        1020.8733  -798.7192  -691.3576 C0            1 RES     
   30485 C0        1020.3272  -799.9939  -692.0021 C0            1 RES     
   30486 C0        1012.3776  -796.6020  -695.1460 C0            1 RES     
   30487 C0        1011.5888  -795.2690  -695.3293 C0            1 RES     
   30488 C0        1010.2299  -795.5800  -695.9640 C0            1 RES     
   30489 C0        1009.4228  -794.4177  -696.5353 C0            1 RES     
   30490 C0        1008.6437  -793.5777  -695.5338 C0            1 RES     
   30491 C0        1007.8704  -792.5014  -696.3242 C0            1 RES     
   30492 C0        1006.8837  -791.6893  -695.4822 C0            1 RES     
   30493 C0        1005.7002  -792.5318  -695.0017 C0            1 RES     
   30494 H6        1013.7716  -795.7660  -697.6896 H6            1 RES     
   30495 H6        1014.8997  -797.1037  -697.6111 H6            1 RES     
   30496 H6        1014.1365  -797.7606  -695.4962 H6            1 RES     
   30497 H6        1014.4806  -794.6877  -695.8110 H6            1 RES     
   30498 H6        1015.7778  -795.9260  -695.8330 H6            1 RES     
   30499 H6        1015.3100  -796.4294  -693.4165 H6            1 RES     
   30500 H6        1014.0119  -795.1857  -693.4279 H6            1 RES     
   30501 H6        1015.9865  -794.1988  -692.4551 H6            1 RES     
   30502 H6        1015.5884  -793.3851  -693.9870 H6            1 RES     
   30503 H6        1018.0276  -793.6770  -693.7030 H6            1 RES     
   30504 H6        1017.4389  -794.5158  -695.1648 H6            1 RES     
   30505 H6        1017.5452  -796.7101  -694.0295 H6            1 RES     
   30506 H6        1019.1189  -795.8507  -693.9974 H6            1 RES     
   30507 H6        1017.0869  -795.9832  -691.6712 H6            1 RES     
   30508 H6        1018.6760  -795.1391  -691.6036 H6            1 RES     
   30509 H6        1018.6205  -797.3837  -690.4961 H6            1 RES     
   30510 H6        1018.1710  -798.1538  -692.0606 H6            1 RES     
   30511 H6        1020.4164  -797.4047  -693.0177 H6            1 RES     
   30512 H6        1020.7627  -796.5709  -691.4585 H6            1 RES     
   30513 H6        1020.7199  -798.7622  -690.2572 H6            1 RES     
   30514 H6        1021.9668  -798.6804  -691.5524 H6            1 RES     
   30515 H6        1019.2447  -800.1187  -691.7976 H6            1 RES     
   30516 H6        1020.4947  -799.9699  -693.0999 H6            1 RES     
   30517 H6        1020.8566  -800.8742  -691.5812 H6            1 RES     
   30518 H6        1012.5329  -796.7336  -694.0538 H6            1 RES     
   30519 H6        1011.7493  -797.4808  -695.4060 H6            1 RES     
   30520 H6        1011.4089  -794.7781  -694.3465 H6            1 RES     
   30521 H6        1012.1673  -794.5681  -695.9648 H6            1 RES     
   30522 H6        1009.6038  -796.2335  -695.3207 H6            1 RES     
   30523 H6        1010.4899  -796.1427  -696.8353 H6            1 RES     
   30524 H6        1010.0792  -793.7929  -697.1459 H6            1 RES     
   30525 H6        1008.6682  -794.8672  -697.2201 H6            1 RES     
   30526 H6        1007.9442  -794.2605  -695.0066 H6            1 RES     
   30527 H6        1009.3183  -793.1006  -694.7919 H6            1 RES     
   30528 H6        1008.6142  -791.8063  -696.7758 H6            1 RES     
   30529 H6        1007.2974  -792.9671  -697.1581 H6            1 RES     
   30530 H6        1006.4745  -790.8810  -696.1275 H6            1 RES     
   30531 H6        1007.4058  -791.2213  -694.6213 H6            1 RES     
   30532 H6        1006.0272  -793.3391  -694.3172 H6            1 RES     
   30533 H6        1004.9821  -791.8853  -694.4575 H6            1 RES     
   30534 H6        1005.1745  -792.9843  -695.8721 H6            1 RES     
   30535 C0        1013.6801  -797.5887  -699.8995 C0            1 RES     
   30536 C0        1014.7890  -796.5584  -700.4044 C0            1 RES     
   30537 C0        1014.7405  -796.5882  -701.9694 C0            1 RES     
   30538 C0        1015.9030  -795.8719  -702.6859 C0            1 RES     
   30539 C0        1015.8021  -795.9056  -704.2211 C0            1 RES     
   30540 C0        1015.7922  -797.3059  -704.8599 C0            1 RES     
   30541 C0        1016.9659  -798.2152  -704.4595 C0            1 RES     
   30542 C0        1018.3449  -797.6103  -704.7765 C0            1 RES     
   30543 C0        1019.5070  -798.5291  -704.3658 C0            1 RES     
   30544 C0        1019.5665  -799.8257  -705.1931 C0            1 RES     
   30545 C0        1020.7977  -800.6870  -704.8713 C0            1 RES     
   30546 C0        1020.7905  -801.2415  -703.4467 C0            1 RES     
   30547 C0        1014.9786  -795.0784  -699.8653 C0            1 RES     
   30548 C0        1013.9266  -793.9645  -700.1306 C0            1 RES     
   30549 C0        1013.1126  -793.6152  -698.8717 C0            1 RES     
   30550 C0        1012.0117  -792.5808  -699.0378 C0            1 RES     
   30551 C0        1012.4458  -791.1329  -699.2172 C0            1 RES     
   30552 C0        1011.1672  -790.2708  -699.1867 C0            1 RES     
   30553 C0        1011.4187  -788.7619  -699.1996 C0            1 RES     
   30554 C0        1012.0820  -788.2727  -697.9113 C0            1 RES     
   30555 H6        1012.8674  -797.6386  -700.6611 H6            1 RES     
   30556 H6        1014.1516  -798.5874  -700.0419 H6            1 RES     
   30557 H6        1015.7486  -797.0331  -700.0946 H6            1 RES     
   30558 H6        1013.7835  -796.1382  -702.3114 H6            1 RES     
   30559 H6        1014.7509  -797.6525  -702.2887 H6            1 RES     
   30560 H6        1016.8663  -796.3132  -702.3545 H6            1 RES     
   30561 H6        1015.9051  -794.7939  -702.4330 H6            1 RES     
   30562 H6        1016.6606  -795.3301  -704.6288 H6            1 RES     
   30563 H6        1014.8789  -795.3729  -704.5388 H6            1 RES     
   30564 H6        1015.7913  -797.1760  -705.9643 H6            1 RES     
   30565 H6        1014.8473  -797.8245  -704.5912 H6            1 RES     
   30566 H6        1016.9068  -798.4416  -703.3735 H6            1 RES     
   30567 H6        1016.8330  -799.1678  -705.0118 H6            1 RES     
   30568 H6        1018.4641  -796.6679  -704.2023 H6            1 RES     
   30569 H6        1018.4206  -797.3699  -705.8591 H6            1 RES     
   30570 H6        1020.4531  -797.9690  -704.5311 H6            1 RES     
   30571 H6        1019.4205  -798.7533  -703.2814 H6            1 RES     
   30572 H6        1018.6551  -800.4390  -705.0382 H6            1 RES     
   30573 H6        1019.6225  -799.5469  -706.2680 H6            1 RES     
   30574 H6        1021.7247  -800.0963  -705.0377 H6            1 RES     
   30575 H6        1020.8064  -801.5490  -705.5727 H6            1 RES     
   30576 H6        1020.8351  -800.4267  -702.6962 H6            1 RES     
   30577 H6        1019.8774  -801.8508  -703.2765 H6            1 RES     
   30578 H6        1021.6807  -801.8890  -703.3012 H6            1 RES     
   30579 H6        1015.9074  -794.7229  -700.3480 H6            1 RES     
   30580 H6        1015.3467  -795.0376  -698.8229 H6            1 RES     
   30581 H6        1014.4781  -793.0286  -700.3695 H6            1 RES     
   30582 H6        1013.2982  -794.2134  -701.0096 H6            1 RES     
   30583 H6        1013.7941  -793.3130  -698.0444 H6            1 RES     
   30584 H6        1012.5554  -794.4854  -698.5432 H6            1 RES     
   30585 H6        1011.3153  -792.8960  -699.8450 H6            1 RES     
   30586 H6        1011.4746  -792.5849  -698.0750 H6            1 RES     
   30587 H6        1013.1131  -790.8717  -698.3688 H6            1 RES     
   30588 H6        1012.9953  -790.9936  -700.1715 H6            1 RES     
   30589 H6        1010.5498  -790.5391  -700.0721 H6            1 RES     
   30590 H6        1010.5672  -790.5017  -698.2764 H6            1 RES     
   30591 H6        1010.4279  -788.2624  -699.2746 H6            1 RES     
   30592 H6        1012.0246  -788.4834  -700.0845 H6            1 RES     
   30593 H6        1013.0968  -788.7008  -697.7899 H6            1 RES     
   30594 H6        1012.1731  -787.1676  -697.9432 H6            1 RES     
   30595 H6        1011.4622  -788.5488  -697.0301 H6            1 RES     
   30596 C0        1016.9360  -809.2771  -694.2508 C0            1 RES     
   30597 C1        1015.8032  -808.3169  -694.6758 C1            1 RES     
   30598 C1        1014.6455  -808.9722  -694.9504 C1            1 RES     
   30599 S2        1013.4236  -807.9702  -695.5030 S2            1 RES     
   30600 C1        1014.4269  -806.5992  -695.4364 C1            1 RES     
   30601 C1        1015.7041  -806.9501  -694.9854 C1            1 RES     
   30602 C1        1014.8576  -810.3583  -694.7878 C1            1 RES     
   30603 C1        1016.1637  -810.5778  -694.4765 C1            1 RES     
   30604 C1        1016.4784  -811.9309  -694.4419 C1            1 RES     
   30605 C1        1015.3396  -812.7105  -694.7056 C1            1 RES     
   30606 S2        1013.9697  -811.7496  -694.9944 S2            1 RES     
   30607 H3        1016.5032  -806.2344  -694.9475 H3            1 RES     
   30608 H3        1017.4673  -812.3268  -694.2441 H3            1 RES     
   30609 N4        1014.5496  -816.3280  -694.1222 N4            1 RES     
   30610 C1        1014.6077  -814.9757  -693.9434 C1            1 RES     
   30611 C1        1015.3040  -814.1613  -694.8532 C1            1 RES     
   30612 C1        1015.9115  -814.7717  -695.9519 C1            1 RES     
   30613 N4        1016.5641  -814.0966  -696.9327 N4            1 RES     
   30614 S2        1016.9983  -815.3118  -697.9655 S2            1 RES     
   30615 N4        1016.4063  -816.6766  -697.2409 N4            1 RES     
   30616 C1        1015.8200  -816.1755  -696.1256 C1            1 RES     
   30617 C1        1015.1413  -816.9443  -695.1837 C1            1 RES     
   30618 H5        1014.1165  -814.5308  -693.0823 H5            1 RES     
   30619 C0        1017.4533  -809.2575  -692.7693 C0            1 RES     
   30620 C0        1016.7653  -809.7561  -691.4427 C0            1 RES     
   30621 C0        1017.7458  -809.3371  -690.2913 C0            1 RES     
   30622 C0        1017.3647  -809.7631  -688.8681 C0            1 RES     
   30623 C0        1018.3741  -809.2526  -687.8129 C0            1 RES     
   30624 C0        1019.8174  -809.7858  -687.9494 C0            1 RES     
   30625 C0        1019.9423  -811.3194  -687.9695 C0            1 RES     
   30626 C0        1019.3443  -811.9897  -686.7199 C0            1 RES     
   30627 C0        1019.4200  -813.5225  -686.7681 C0            1 RES     
   30628 C0        1020.8595  -814.0601  -686.7023 C0            1 RES     
   30629 C0        1020.9175  -815.5945  -686.6355 C0            1 RES     
   30630 C0        1020.4005  -816.2727  -687.9048 C0            1 RES     
   30631 C0        1015.2887  -809.3432  -691.1355 C0            1 RES     
   30632 C0        1014.9518  -807.8393  -690.8956 C0            1 RES     
   30633 C0        1013.9189  -807.3907  -691.9338 C0            1 RES     
   30634 C0        1013.6800  -805.8935  -692.1066 C0            1 RES     
   30635 C0        1012.7777  -805.2287  -691.0774 C0            1 RES     
   30636 C0        1012.6359  -803.7423  -691.4670 C0            1 RES     
   30637 C0        1011.6046  -802.9704  -690.6408 C0            1 RES     
   30638 C0        1010.1729  -803.4307  -690.9229 C0            1 RES     
   30639 H6        1017.7165  -808.2522  -692.5596 H6            1 RES     
   30640 H6        1018.3964  -809.8483  -692.8019 H6            1 RES     
   30641 H6        1016.7397  -810.8674  -691.4967 H6            1 RES     
   30642 H6        1017.8512  -808.2301  -690.2845 H6            1 RES     
   30643 H6        1018.7435  -809.7674  -690.5231 H6            1 RES     
   30644 H6        1017.2662  -810.8664  -688.8140 H6            1 RES     
   30645 H6        1016.3874  -809.3125  -688.6016 H6            1 RES     
   30646 H6        1017.9871  -809.5198  -686.8079 H6            1 RES     
   30647 H6        1018.4131  -808.1414  -687.8499 H6            1 RES     
   30648 H6        1020.4145  -809.3853  -687.1000 H6            1 RES     
   30649 H6        1020.2767  -809.3888  -688.8799 H6            1 RES     
   30650 H6        1019.4399  -811.7158  -688.8770 H6            1 RES     
   30651 H6        1021.0227  -811.5611  -688.0480 H6            1 RES     
   30652 H6        1018.2665  -811.7354  -686.6583 H6            1 RES     
   30653 H6        1019.8456  -811.6117  -685.8020 H6            1 RES     
   30654 H6        1018.8642  -813.9134  -685.8881 H6            1 RES     
   30655 H6        1018.9062  -813.8729  -687.6879 H6            1 RES     
   30656 H6        1021.4522  -813.7176  -687.5757 H6            1 RES     
   30657 H6        1021.3344  -813.6632  -685.7786 H6            1 RES     
   30658 H6        1020.3393  -815.9559  -685.7572 H6            1 RES     
   30659 H6        1021.9788  -815.8942  -686.4971 H6            1 RES     
   30660 H6        1019.3262  -816.0547  -688.0710 H6            1 RES     
   30661 H6        1020.9860  -815.9338  -688.7857 H6            1 RES     
   30662 H6        1020.5129  -817.3726  -687.8054 H6            1 RES     
   30663 H6        1014.9698  -809.8914  -690.2234 H6            1 RES     
   30664 H6        1014.6352  -809.7823  -691.9195 H6            1 RES     
   30665 H6        1014.5143  -807.6892  -689.8831 H6            1 RES     
   30666 H6        1015.8729  -807.2261  -690.9684 H6            1 RES     
   30667 H6        1012.9627  -807.9483  -691.8454 H6            1 RES     
   30668 H6        1014.3682  -807.6707  -692.8628 H6            1 RES     
   30669 H6        1014.6440  -805.3830  -692.1722 H6            1 RES     
   30670 H6        1013.1755  -805.7685  -693.0917 H6            1 RES     
   30671 H6        1011.7951  -805.7445  -691.1205 H6            1 RES     
   30672 H6        1013.1945  -805.3202  -690.0522 H6            1 RES     
   30673 H6        1013.6311  -803.2582  -691.3424 H6            1 RES     
   30674 H6        1012.3484  -803.6463  -692.5388 H6            1 RES     
   30675 H6        1011.6716  -801.8991  -690.9325 H6            1 RES     
   30676 H6        1011.8366  -803.0551  -689.5583 H6            1 RES     
   30677 H6        1010.0173  -804.4846  -690.6189 H6            1 RES     
   30678 H6        1009.4615  -802.7974  -690.3550 H6            1 RES     
   30679 H6        1009.9448  -803.3281  -692.0074 H6            1 RES     
   30680 C0        1018.0981  -809.0292  -695.2918 C0            1 RES     
   30681 C0        1019.5144  -808.3709  -694.9651 C0            1 RES     
   30682 C0        1020.0785  -807.8377  -696.3252 C0            1 RES     
   30683 C0        1021.5562  -807.3971  -696.3069 C0            1 RES     
   30684 C0        1022.0611  -806.8584  -697.6571 C0            1 RES     
   30685 C0        1021.9926  -807.8436  -698.8377 C0            1 RES     
   30686 C0        1022.6818  -809.1975  -698.6000 C0            1 RES     
   30687 C0        1024.1713  -809.0706  -698.2347 C0            1 RES     
   30688 C0        1024.8440  -810.4320  -697.9954 C0            1 RES     
   30689 C0        1024.9345  -811.2878  -699.2715 C0            1 RES     
   30690 C0        1025.7165  -812.5942  -699.0639 C0            1 RES     
   30691 C0        1025.0282  -813.5632  -698.1024 C0            1 RES     
   30692 C0        1019.8000  -807.3483  -693.7863 C0            1 RES     
   30693 C0        1019.2117  -805.9089  -693.7845 C0            1 RES     
   30694 C0        1018.0686  -805.7442  -692.7670 C0            1 RES     
   30695 C0        1017.3801  -804.3898  -692.7294 C0            1 RES     
   30696 C0        1018.1588  -803.2361  -692.1134 C0            1 RES     
   30697 C0        1017.1964  -802.0335  -692.0328 C0            1 RES     
   30698 C0        1017.7603  -800.8177  -691.2952 C0            1 RES     
   30699 C0        1017.9553  -801.0835  -689.8017 C0            1 RES     
   30700 H6        1017.6604  -808.5113  -696.1767 H6            1 RES     
   30701 H6        1018.3536  -810.0154  -695.7413 H6            1 RES     
   30702 H6        1020.1443  -809.2396  -694.6640 H6            1 RES     
   30703 H6        1019.4581  -806.9802  -696.6643 H6            1 RES     
   30704 H6        1019.9774  -808.6506  -697.0762 H6            1 RES     
   30705 H6        1022.1883  -808.2458  -695.9714 H6            1 RES     
   30706 H6        1021.6977  -806.5541  -695.6031 H6            1 RES     
   30707 H6        1023.1149  -806.5348  -697.5190 H6            1 RES     
   30708 H6        1021.4795  -805.9502  -697.9291 H6            1 RES     
   30709 H6        1022.4539  -807.3492  -699.7205 H6            1 RES     
   30710 H6        1020.9287  -808.0383  -699.0913 H6            1 RES     
   30711 H6        1022.1528  -809.7470  -697.7922 H6            1 RES     
   30712 H6        1022.5688  -809.7808  -699.5365 H6            1 RES     
   30713 H6        1024.2612  -808.4987  -697.2876 H6            1 RES     
   30714 H6        1024.7169  -808.5163  -699.0288 H6            1 RES     
   30715 H6        1025.8776  -810.2376  -697.6347 H6            1 RES     
   30716 H6        1024.2916  -810.9690  -697.1953 H6            1 RES     
   30717 H6        1023.9242  -811.5373  -699.6561 H6            1 RES     
   30718 H6        1025.4680  -810.6958  -700.0469 H6            1 RES     
   30719 H6        1026.7402  -812.3660  -698.6953 H6            1 RES     
   30720 H6        1025.8085  -813.0996  -700.0494 H6            1 RES     
   30721 H6        1024.9541  -813.1351  -697.0824 H6            1 RES     
   30722 H6        1024.0113  -813.8138  -698.4726 H6            1 RES     
   30723 H6        1025.6224  -814.4989  -698.0378 H6            1 RES     
   30724 H6        1020.8973  -807.2145  -693.7933 H6            1 RES     
   30725 H6        1019.7287  -807.8083  -692.7828 H6            1 RES     
   30726 H6        1020.0052  -805.2198  -693.4200 H6            1 RES     
   30727 H6        1018.9406  -805.5897  -694.8112 H6            1 RES     
   30728 H6        1018.4193  -806.0188  -691.7463 H6            1 RES     
   30729 H6        1017.2494  -806.4054  -693.0269 H6            1 RES     
   30730 H6        1017.0053  -804.1279  -693.7427 H6            1 RES     
   30731 H6        1016.5219  -804.5295  -692.0515 H6            1 RES     
   30732 H6        1018.4795  -803.5483  -691.0970 H6            1 RES     
   30733 H6        1019.0546  -802.9871  -692.7196 H6            1 RES     
   30734 H6        1016.9332  -801.7330  -693.0709 H6            1 RES     
   30735 H6        1016.2525  -802.3279  -691.5187 H6            1 RES     
   30736 H6        1017.0158  -799.9973  -691.3930 H6            1 RES     
   30737 H6        1018.7101  -800.4931  -691.7644 H6            1 RES     
   30738 H6        1018.7188  -801.8671  -689.6257 H6            1 RES     
   30739 H6        1018.2940  -800.1512  -689.3050 H6            1 RES     
   30740 H6        1016.9951  -801.3997  -689.3382 H6            1 RES     
   30741 C0        1016.1986  -822.2721  -694.9110 C0            1 RES     
   30742 C1        1015.5670  -820.8807  -695.1361 C1            1 RES     
   30743 C1        1014.4959  -820.9277  -695.9703 C1            1 RES     
   30744 S2        1013.8439  -819.4234  -696.3085 S2            1 RES     
   30745 C1        1015.0173  -818.6297  -695.3683 C1            1 RES     
   30746 C1        1015.9027  -819.5567  -694.8076 C1            1 RES     
   30747 C1        1014.3144  -822.2590  -696.4032 C1            1 RES     
   30748 C1        1015.3096  -823.0347  -695.8944 C1            1 RES     
   30749 C1        1015.2772  -824.3309  -696.3946 C1            1 RES     
   30750 C1        1014.1912  -824.4960  -697.2708 C1            1 RES     
   30751 S2        1013.2946  -823.0641  -697.4416 S2            1 RES     
   30752 H3        1016.7598  -819.2442  -694.2418 H3            1 RES     
   30753 H3        1015.9947  -825.1035  -696.1456 H3            1 RES     
   30754 N4        1012.4556  -827.5332  -698.6174 N4            1 RES     
   30755 C1        1012.7370  -826.4481  -697.8379 C1            1 RES     
   30756 C1        1013.8960  -825.6851  -698.0623 C1            1 RES     
   30757 C1        1014.7342  -826.0551  -699.1156 C1            1 RES     
   30758 N4        1015.8511  -825.3719  -699.4749 N4            1 RES     
   30759 S2        1016.3749  -826.2236  -700.7910 S2            1 RES     
   30760 N4        1015.2596  -827.4362  -700.9462 N4            1 RES     
   30761 C1        1014.4096  -827.1742  -699.9227 C1            1 RES     
   30762 C1        1013.2639  -827.9153  -699.6457 C1            1 RES     
   30763 H5        1012.0592  -826.1816  -697.0316 H5            1 RES     
   30764 C0        1016.0835  -822.9569  -693.5037 C0            1 RES     
   30765 C0        1014.8383  -823.5943  -692.7790 C0            1 RES     
   30766 C0        1015.3547  -823.9896  -691.3509 C0            1 RES     
   30767 C0        1014.3617  -824.7101  -690.4305 C0            1 RES     
   30768 C0        1014.9618  -825.0038  -689.0354 C0            1 RES     
   30769 C0        1016.1857  -825.9459  -689.0143 C0            1 RES     
   30770 C0        1015.9654  -827.3096  -689.6925 C0            1 RES     
   30771 C0        1014.7927  -828.1015  -689.0874 C0            1 RES     
   30772 C0        1014.5396  -829.4367  -689.8022 C0            1 RES     
   30773 C0        1015.6797  -830.4512  -689.6116 C0            1 RES     
   30774 C0        1015.3654  -831.8211  -690.2337 C0            1 RES     
   30775 C0        1015.2515  -831.7787  -691.7580 C0            1 RES     
   30776 C0        1013.4911  -822.8028  -692.7178 C0            1 RES     
   30777 C0        1013.4294  -821.4632  -691.9213 C0            1 RES     
   30778 C0        1013.0140  -820.3384  -692.8743 C0            1 RES     
   30779 C0        1013.2003  -818.8977  -692.4068 C0            1 RES     
   30780 C0        1012.1382  -818.3487  -691.4655 C0            1 RES     
   30781 C0        1012.4939  -816.8780  -691.1624 C0            1 RES     
   30782 C0        1011.4200  -816.1190  -690.3795 C0            1 RES     
   30783 C0        1010.1506  -815.8946  -691.2038 C0            1 RES     
   30784 H6        1016.4589  -822.2575  -692.8011 H6            1 RES     
   30785 H6        1016.8074  -823.8016  -693.5514 H6            1 RES     
   30786 H6        1014.5904  -824.5262  -693.3346 H6            1 RES     
   30787 H6        1015.6914  -823.0743  -690.8166 H6            1 RES     
   30788 H6        1016.2410  -824.6467  -691.4814 H6            1 RES     
   30789 H6        1014.0081  -825.6458  -690.9093 H6            1 RES     
   30790 H6        1013.4844  -824.0550  -690.2559 H6            1 RES     
   30791 H6        1014.1628  -825.4403  -688.4012 H6            1 RES     
   30792 H6        1015.2573  -824.0453  -688.5539 H6            1 RES     
   30793 H6        1016.4742  -826.1124  -687.9525 H6            1 RES     
   30794 H6        1017.0488  -825.4496  -689.5073 H6            1 RES     
   30795 H6        1015.7851  -827.1541  -690.7771 H6            1 RES     
   30796 H6        1016.9071  -827.8870  -689.5853 H6            1 RES     
   30797 H6        1013.8627  -827.5083  -689.2027 H6            1 RES     
   30798 H6        1014.9638  -828.2761  -688.0026 H6            1 RES     
   30799 H6        1013.6115  -829.8750  -689.3747 H6            1 RES     
   30800 H6        1014.3642  -829.2332  -690.8795 H6            1 RES     
   30801 H6        1016.6275  -830.0705  -690.0456 H6            1 RES     
   30802 H6        1015.8291  -830.6018  -688.5202 H6            1 RES     
   30803 H6        1014.4245  -832.2251  -689.8003 H6            1 RES     
   30804 H6        1016.1920  -832.5167  -689.9729 H6            1 RES     
   30805 H6        1014.4061  -831.1393  -692.0829 H6            1 RES     
   30806 H6        1016.1950  -831.3959  -692.2019 H6            1 RES     
   30807 H6        1015.0692  -832.8044  -692.1414 H6            1 RES     
   30808 H6        1012.7270  -823.4749  -692.2720 H6            1 RES     
   30809 H6        1013.1181  -822.6717  -693.7561 H6            1 RES     
   30810 H6        1012.6748  -821.5234  -691.1051 H6            1 RES     
   30811 H6        1014.4161  -821.2458  -691.4642 H6            1 RES     
   30812 H6        1012.0022  -820.5003  -693.3020 H6            1 RES     
   30813 H6        1013.7176  -820.4236  -693.6749 H6            1 RES     
   30814 H6        1014.1997  -818.7872  -691.9789 H6            1 RES     
   30815 H6        1013.1641  -818.2643  -693.3223 H6            1 RES     
   30816 H6        1011.1636  -818.4194  -691.9935 H6            1 RES     
   30817 H6        1012.0878  -818.9349  -690.5237 H6            1 RES     
   30818 H6        1013.4406  -816.8675  -690.5760 H6            1 RES     
   30819 H6        1012.6790  -816.3192  -692.1079 H6            1 RES     
   30820 H6        1011.8316  -815.1173  -690.1259 H6            1 RES     
   30821 H6        1011.1836  -816.6515  -689.4343 H6            1 RES     
   30822 H6        1009.6589  -816.8531  -691.4623 H6            1 RES     
   30823 H6        1009.4330  -815.2833  -690.6198 H6            1 RES     
   30824 H6        1010.3952  -815.3475  -692.1416 H6            1 RES     
   30825 C0        1017.6995  -822.1238  -695.3812 C0            1 RES     
   30826 C0        1018.9816  -822.1869  -694.4334 C0            1 RES     
   30827 C0        1020.1370  -821.4628  -695.2035 C0            1 RES     
   30828 C0        1021.5465  -821.6298  -694.6008 C0            1 RES     
   30829 C0        1022.6464  -820.8826  -695.3756 C0            1 RES     
   30830 C0        1022.8302  -821.3004  -696.8455 C0            1 RES     
   30831 C0        1023.0523  -822.8046  -697.0746 C0            1 RES     
   30832 C0        1024.2668  -823.3670  -696.3151 C0            1 RES     
   30833 C0        1024.4718  -824.8722  -696.5505 C0            1 RES     
   30834 C0        1024.8637  -825.2035  -698.0017 C0            1 RES     
   30835 C0        1025.1909  -826.6902  -698.2106 C0            1 RES     
   30836 C0        1023.9845  -827.6076  -698.0100 C0            1 RES     
   30837 C0        1019.0005  -821.8158  -692.8911 C0            1 RES     
   30838 C0        1018.7936  -820.3574  -692.3927 C0            1 RES     
   30839 C0        1017.4102  -820.1482  -691.7508 C0            1 RES     
   30840 C0        1017.0809  -818.7390  -691.2867 C0            1 RES     
   30841 C0        1017.7900  -818.2406  -690.0353 C0            1 RES     
   30842 C0        1017.1657  -816.8771  -689.6751 C0            1 RES     
   30843 C0        1017.6490  -816.2884  -688.3484 C0            1 RES     
   30844 C0        1017.1782  -817.1059  -687.1445 C0            1 RES     
   30845 H6        1017.7707  -821.2100  -696.0161 H6            1 RES     
   30846 H6        1017.8855  -822.9139  -696.1436 H6            1 RES     
   30847 H6        1019.2333  -823.2722  -694.4046 H6            1 RES     
   30848 H6        1019.9061  -820.3774  -695.2673 H6            1 RES     
   30849 H6        1020.1612  -821.8682  -696.2379 H6            1 RES     
   30850 H6        1021.7912  -822.7106  -694.5330 H6            1 RES     
   30851 H6        1021.5834  -821.1967  -693.5825 H6            1 RES     
   30852 H6        1023.6046  -821.0369  -694.8350 H6            1 RES     
   30853 H6        1022.4352  -819.7909  -695.3491 H6            1 RES     
   30854 H6        1023.6980  -820.7371  -697.2533 H6            1 RES     
   30855 H6        1021.9368  -820.9911  -697.4288 H6            1 RES     
   30856 H6        1022.1413  -823.3648  -696.7735 H6            1 RES     
   30857 H6        1023.1896  -822.9433  -698.1663 H6            1 RES     
   30858 H6        1024.1021  -823.2334  -695.2255 H6            1 RES     
   30859 H6        1025.1882  -822.8135  -696.5980 H6            1 RES     
   30860 H6        1025.2960  -825.2077  -695.8840 H6            1 RES     
   30861 H6        1023.5457  -825.4104  -696.2564 H6            1 RES     
   30862 H6        1024.0574  -824.9158  -698.7074 H6            1 RES     
   30863 H6        1025.7753  -824.6194  -698.2548 H6            1 RES     
   30864 H6        1026.0106  -826.9956  -697.5246 H6            1 RES     
   30865 H6        1025.5477  -826.8198  -699.2551 H6            1 RES     
   30866 H6        1023.6129  -827.5633  -696.9664 H6            1 RES     
   30867 H6        1023.1664  -827.3236  -698.7057 H6            1 RES     
   30868 H6        1024.2822  -828.6559  -698.2224 H6            1 RES     
   30869 H6        1020.0125  -822.0998  -692.5486 H6            1 RES     
   30870 H6        1018.4412  -822.5340  -692.2626 H6            1 RES     
   30871 H6        1019.5115  -820.1790  -691.5621 H6            1 RES     
   30872 H6        1019.0251  -819.6274  -693.1945 H6            1 RES     
   30873 H6        1017.2620  -820.8668  -690.9130 H6            1 RES     
   30874 H6        1016.6345  -820.3294  -692.4864 H6            1 RES     
   30875 H6        1017.2020  -818.0250  -692.1302 H6            1 RES     
   30876 H6        1016.0179  -818.7797  -690.9972 H6            1 RES     
   30877 H6        1017.6083  -818.9792  -689.2261 H6            1 RES     
   30878 H6        1018.8828  -818.1441  -690.2044 H6            1 RES     
   30879 H6        1017.4047  -816.1621  -690.4929 H6            1 RES     
   30880 H6        1016.0561  -816.9632  -689.6177 H6            1 RES     
   30881 H6        1017.2046  -815.2731  -688.2559 H6            1 RES     
   30882 H6        1018.7530  -816.1937  -688.3523 H6            1 RES     
   30883 H6        1017.6171  -818.1233  -687.1488 H6            1 RES     
   30884 H6        1017.4922  -816.5963  -686.2105 H6            1 RES     
   30885 H6        1016.0691  -817.1874  -687.1444 H6            1 RES     
   30886 C0        1012.9204  -832.9994  -701.5463 C0            1 RES     
   30887 C1        1012.7530  -831.4882  -701.2744 C1            1 RES     
   30888 C1        1012.1138  -830.8480  -702.2876 C1            1 RES     
   30889 S2        1011.9977  -829.1927  -702.0665 S2            1 RES     
   30890 C1        1012.8522  -829.2620  -700.5981 C1            1 RES     
   30891 C1        1013.2172  -830.5810  -700.3073 C1            1 RES     
   30892 C1        1011.8267  -831.7819  -703.3066 C1            1 RES     
   30893 C1        1012.3436  -832.9924  -702.9628 C1            1 RES     
   30894 C1        1012.2237  -833.9273  -703.9840 C1            1 RES     
   30895 C1        1011.5616  -833.3691  -705.0905 C1            1 RES     
   30896 S2        1011.1453  -831.7447  -704.8235 S2            1 RES     
   30897 H3        1013.8296  -830.8207  -699.4589 H3            1 RES     
   30898 H3        1012.5954  -834.9437  -703.9331 H3            1 RES     
   30899 N4        1009.8676  -834.8914  -708.0676 N4            1 RES     
   30900 C1        1010.0533  -834.3267  -706.8385 C1            1 RES     
   30901 C1        1011.3451  -834.0145  -706.3805 C1            1 RES     
   30902 C1        1012.4247  -834.2771  -707.2257 C1            1 RES     
   30903 N4        1013.7141  -833.9719  -706.9299 N4            1 RES     
   30904 S2        1014.5094  -834.4444  -708.2996 S2            1 RES     
   30905 N4        1013.3060  -835.0297  -709.2731 N4            1 RES     
   30906 C1        1012.2037  -834.8458  -708.5052 C1            1 RES     
   30907 C1        1010.9079  -835.1620  -708.9050 C1            1 RES     
   30908 H5        1009.1909  -834.1269  -706.2085 H5            1 RES     
   30909 C0        1012.1137  -834.0354  -700.6868 C0            1 RES     
   30910 C0        1010.5765  -834.3804  -700.6842 C0            1 RES     
   30911 C0        1010.3895  -835.4048  -699.5103 C0            1 RES     
   30912 C0        1008.9823  -835.9817  -699.3123 C0            1 RES     
   30913 C0        1008.9056  -836.9376  -698.0986 C0            1 RES     
   30914 C0        1009.7812  -838.2071  -698.1857 C0            1 RES     
   30915 C0        1009.5484  -839.0699  -699.4386 C0            1 RES     
   30916 C0        1008.0886  -839.5336  -699.5888 C0            1 RES     
   30917 C0        1007.8474  -840.3471  -700.8685 C0            1 RES     
   30918 C0        1008.5656  -841.7071  -700.8659 C0            1 RES     
   30919 C0        1008.2256  -842.5602  -702.0984 C0            1 RES     
   30920 C0        1008.7315  -841.9548  -703.4083 C0            1 RES     
   30921 C0        1009.5252  -833.2243  -700.6274 C0            1 RES     
   30922 C0        1009.4543  -832.3198  -699.3586 C0            1 RES     
   30923 C0        1009.7067  -830.8665  -699.7710 C0            1 RES     
   30924 C0        1010.0087  -829.8518  -698.6719 C0            1 RES     
   30925 C0        1008.8129  -829.3139  -697.8998 C0            1 RES     
   30926 C0        1009.3373  -828.2786  -696.8827 C0            1 RES     
   30927 C0        1008.2395  -827.5002  -696.1538 C0            1 RES     
   30928 C0        1007.4794  -826.5563  -697.0880 C0            1 RES     
   30929 H6        1012.3281  -833.8116  -699.6730 H6            1 RES     
   30930 H6        1012.5915  -835.0137  -700.9197 H6            1 RES     
   30931 H6        1010.3667  -834.9025  -701.6444 H6            1 RES     
   30932 H6        1010.6832  -834.9222  -698.5525 H6            1 RES     
   30933 H6        1011.0864  -836.2521  -699.6863 H6            1 RES     
   30934 H6        1008.6472  -836.4949  -700.2365 H6            1 RES     
   30935 H6        1008.2758  -835.1547  -699.0972 H6            1 RES     
   30936 H6        1007.8467  -837.2412  -697.9651 H6            1 RES     
   30937 H6        1009.1928  -836.3843  -697.1770 H6            1 RES     
   30938 H6        1009.5852  -838.8238  -697.2804 H6            1 RES     
   30939 H6        1010.8551  -837.9241  -698.1550 H6            1 RES     
   30940 H6        1009.8475  -838.4946  -700.3400 H6            1 RES     
   30941 H6        1010.2191  -839.9508  -699.3614 H6            1 RES     
   30942 H6        1007.4351  -838.6406  -699.6626 H6            1 RES     
   30943 H6        1007.7771  -840.1222  -698.6982 H6            1 RES     
   30944 H6        1006.7540  -840.5336  -700.9459 H6            1 RES     
   30945 H6        1008.1586  -839.7346  -701.7406 H6            1 RES     
   30946 H6        1009.6663  -841.5754  -700.8150 H6            1 RES     
   30947 H6        1008.2374  -842.2693  -699.9646 H6            1 RES     
   30948 H6        1007.1261  -842.7144  -702.1586 H6            1 RES     
   30949 H6        1008.7071  -843.5541  -701.9739 H6            1 RES     
   30950 H6        1008.2458  -840.9805  -703.6177 H6            1 RES     
   30951 H6        1009.8328  -841.8163  -703.3659 H6            1 RES     
   30952 H6        1008.4919  -842.6415  -704.2470 H6            1 RES     
   30953 H6        1008.5192  -833.6791  -700.7520 H6            1 RES     
   30954 H6        1009.6286  -832.6153  -701.5509 H6            1 RES     
   30955 H6        1008.4471  -832.3775  -698.8882 H6            1 RES     
   30956 H6        1010.2040  -832.6515  -698.6118 H6            1 RES     
   30957 H6        1008.9353  -830.4878  -700.4742 H6            1 RES     
   30958 H6        1010.6300  -830.9210  -700.3074 H6            1 RES     
   30959 H6        1010.7575  -830.2705  -697.9950 H6            1 RES     
   30960 H6        1010.4759  -828.9749  -699.1751 H6            1 RES     
   30961 H6        1008.1343  -828.8354  -698.6375 H6            1 RES     
   30962 H6        1008.2684  -830.1274  -697.3755 H6            1 RES     
   30963 H6        1009.9547  -828.8191  -696.1298 H6            1 RES     
   30964 H6        1009.9973  -827.5367  -697.3873 H6            1 RES     
   30965 H6        1008.7294  -826.8733  -695.3765 H6            1 RES     
   30966 H6        1007.5397  -828.2004  -695.6511 H6            1 RES     
   30967 H6        1006.9296  -827.1148  -697.8709 H6            1 RES     
   30968 H6        1006.7452  -825.9672  -696.5019 H6            1 RES     
   30969 H6        1008.1871  -825.8490  -697.5756 H6            1 RES     
   30970 C0        1014.4776  -833.2585  -701.4863 C0            1 RES     
   30971 C0        1015.2362  -834.1105  -700.3706 C0            1 RES     
   30972 C0        1016.7303  -833.6420  -700.3963 C0            1 RES     
   30973 C0        1017.7152  -834.5110  -699.5883 C0            1 RES     
   30974 C0        1019.1666  -834.0007  -699.6221 C0            1 RES     
   30975 C0        1019.8149  -833.9207  -701.0157 C0            1 RES     
   30976 C0        1019.7697  -835.2223  -701.8333 C0            1 RES     
   30977 C0        1020.4313  -836.4156  -701.1217 C0            1 RES     
   30978 C0        1020.3732  -837.7096  -701.9496 C0            1 RES     
   30979 C0        1021.2191  -837.6375  -703.2336 C0            1 RES     
   30980 C0        1021.2638  -838.9695  -703.9984 C0            1 RES     
   30981 C0        1019.9048  -839.3893  -704.5590 C0            1 RES     
   30982 C0        1014.7302  -834.3301  -698.8831 C0            1 RES     
   30983 C0        1014.6730  -833.1668  -697.8528 C0            1 RES     
   30984 C0        1013.2326  -832.7012  -697.5740 C0            1 RES     
   30985 C0        1013.0687  -831.5237  -696.6273 C0            1 RES     
   30986 C0        1013.3211  -831.7857  -695.1492 C0            1 RES     
   30987 C0        1012.9245  -830.5036  -694.3890 C0            1 RES     
   30988 C0        1012.9658  -830.6308  -692.8651 C0            1 RES     
   30989 C0        1011.8921  -831.5808  -692.3323 C0            1 RES     
   30990 H6        1014.9927  -832.2758  -701.5953 H6            1 RES     
   30991 H6        1014.7677  -833.7457  -702.4447 H6            1 RES     
   30992 H6        1015.2091  -835.1503  -700.7710 H6            1 RES     
   30993 H6        1016.7897  -832.5978  -700.0201 H6            1 RES     
   30994 H6        1017.0680  -833.6434  -701.4550 H6            1 RES     
   30995 H6        1017.6675  -835.5577  -699.9553 H6            1 RES     
   30996 H6        1017.4445  -834.5026  -698.5148 H6            1 RES     
   30997 H6        1019.7757  -834.6719  -698.9797 H6            1 RES     
   30998 H6        1019.2095  -832.9894  -699.1610 H6            1 RES     
   30999 H6        1020.8744  -833.6110  -700.8808 H6            1 RES     
   31000 H6        1019.3147  -833.1245  -701.6074 H6            1 RES     
   31001 H6        1018.7142  -835.4765  -702.0691 H6            1 RES     
   31002 H6        1020.2900  -835.0148  -702.7906 H6            1 RES     
   31003 H6        1019.8864  -836.6166  -700.1758 H6            1 RES     
   31004 H6        1021.4875  -836.1772  -700.8708 H6            1 RES     
   31005 H6        1020.7731  -838.5318  -701.3171 H6            1 RES     
   31006 H6        1019.3118  -837.9369  -702.1854 H6            1 RES     
   31007 H6        1020.8399  -836.8497  -703.9165 H6            1 RES     
   31008 H6        1022.2617  -837.3795  -702.9459 H6            1 RES     
   31009 H6        1021.6588  -839.7708  -703.3368 H6            1 RES     
   31010 H6        1021.9635  -838.8510  -704.8537 H6            1 RES     
   31011 H6        1019.1735  -839.5758  -703.7469 H6            1 RES     
   31012 H6        1019.5104  -838.6037  -705.2381 H6            1 RES     
   31013 H6        1020.0217  -840.3306  -705.1362 H6            1 RES     
   31014 H6        1015.4363  -835.0646  -698.4543 H6            1 RES     
   31015 H6        1013.8251  -834.9629  -698.8191 H6            1 RES     
   31016 H6        1015.0276  -833.5629  -696.8758 H6            1 RES     
   31017 H6        1015.3560  -832.3438  -698.1453 H6            1 RES     
   31018 H6        1012.6123  -833.5574  -697.2239 H6            1 RES     
   31019 H6        1012.7885  -832.3192  -698.4864 H6            1 RES     
   31020 H6        1013.6659  -830.6597  -696.9914 H6            1 RES     
   31021 H6        1011.9971  -831.2695  -696.6778 H6            1 RES     
   31022 H6        1012.6778  -832.6369  -694.8413 H6            1 RES     
   31023 H6        1014.3843  -832.0442  -694.9629 H6            1 RES     
   31024 H6        1013.6172  -829.6907  -694.6999 H6            1 RES     
   31025 H6        1011.8924  -830.1913  -694.6702 H6            1 RES     
   31026 H6        1012.7578  -829.6229  -692.4435 H6            1 RES     
   31027 H6        1013.9739  -830.9521  -692.5359 H6            1 RES     
   31028 H6        1012.0602  -832.6190  -692.6811 H6            1 RES     
   31029 H6        1011.9188  -831.5785  -691.2233 H6            1 RES     
   31030 H6        1010.8838  -831.2449  -692.6601 H6            1 RES     
   31031 C0        1010.2206  -838.7709  -712.9152 C0            1 RES     
   31032 C1        1010.2994  -837.4982  -712.0436 C1            1 RES     
   31033 C1        1010.2681  -836.3606  -712.7853 C1            1 RES     
   31034 S2        1010.4445  -834.9647  -711.8783 S2            1 RES     
   31035 C1        1010.6158  -835.8452  -710.4340 C1            1 RES     
   31036 C1        1010.5353  -837.2190  -710.6871 C1            1 RES     
   31037 C1        1010.2047  -836.7099  -714.1516 C1            1 RES     
   31038 C1        1010.2631  -838.0639  -714.2707 C1            1 RES     
   31039 C1        1010.3497  -838.4745  -715.5955 C1            1 RES     
   31040 C1        1010.3163  -837.3671  -716.4598 C1            1 RES     
   31041 S2        1010.1999  -835.9036  -715.6064 S2            1 RES     
   31042 H3        1010.6960  -837.9437  -709.9117 H3            1 RES     
   31043 H3        1010.4363  -839.5063  -715.9144 H3            1 RES     
   31044 N4        1009.6350  -837.0321  -720.1304 N4            1 RES     
   31045 C1        1009.4437  -837.0373  -718.7786 C1            1 RES     
   31046 C1        1010.4863  -837.3993  -717.9081 C1            1 RES     
   31047 C1        1011.7235  -837.7293  -718.4641 C1            1 RES     
   31048 N4        1012.8262  -838.0404  -717.7355 N4            1 RES     
   31049 S2        1013.9689  -838.2663  -718.9082 S2            1 RES     
   31050 N4        1013.1469  -837.9945  -720.3184 N4            1 RES     
   31051 C1        1011.9022  -837.6973  -719.8699 C1            1 RES     
   31052 C1        1010.8323  -837.3575  -720.6937 C1            1 RES     
   31053 H5        1008.4708  -836.7666  -718.3775 H5            1 RES     
   31054 C0        1008.9337  -839.6675  -712.8629 C0            1 RES     
   31055 C0        1007.4840  -839.4033  -713.4200 C0            1 RES     
   31056 C0        1006.6295  -840.6256  -712.9320 C0            1 RES     
   31057 C0        1005.1677  -840.6768  -713.3934 C0            1 RES     
   31058 C0        1004.4112  -841.8941  -712.8115 C0            1 RES     
   31059 C0        1004.9458  -843.2815  -713.2304 C0            1 RES     
   31060 C0        1005.0385  -843.5084  -714.7496 C0            1 RES     
   31061 C0        1003.6915  -843.3222  -715.4705 C0            1 RES     
   31062 C0        1003.7980  -843.4941  -716.9925 C0            1 RES     
   31063 C0        1004.1369  -844.9329  -717.4172 C0            1 RES     
   31064 C0        1004.1279  -845.1192  -718.9429 C0            1 RES     
   31065 C0        1005.2276  -844.3286  -719.6527 C0            1 RES     
   31066 C0        1006.7793  -838.0391  -713.1244 C0            1 RES     
   31067 C0        1006.4186  -837.6705  -711.6524 C0            1 RES     
   31068 C0        1007.1276  -836.3649  -711.2801 C0            1 RES     
   31069 C0        1007.1909  -835.9791  -709.8050 C0            1 RES     
   31070 C0        1005.9395  -835.3432  -709.2173 C0            1 RES     
   31071 C0        1006.2380  -834.9926  -707.7444 C0            1 RES     
   31072 C0        1005.1445  -834.1701  -707.0590 C0            1 RES     
   31073 C0        1005.0415  -832.7532  -707.6276 C0            1 RES     
   31074 H6        1008.7769  -839.9033  -711.8413 H6            1 RES     
   31075 H6        1009.2349  -840.6072  -713.3787 H6            1 RES     
   31076 H6        1007.5578  -839.4455  -714.5297 H6            1 RES     
   31077 H6        1006.6228  -840.6475  -711.8202 H6            1 RES     
   31078 H6        1007.1329  -841.5519  -713.2825 H6            1 RES     
   31079 H6        1005.1175  -840.6778  -714.5013 H6            1 RES     
   31080 H6        1004.6358  -839.7780  -713.0213 H6            1 RES     
   31081 H6        1003.3463  -841.8147  -713.1129 H6            1 RES     
   31082 H6        1004.4286  -841.8401  -711.7004 H6            1 RES     
   31083 H6        1004.2790  -844.0554  -712.7891 H6            1 RES     
   31084 H6        1005.9551  -843.4411  -712.7944 H6            1 RES     
   31085 H6        1005.7867  -842.8093  -715.1792 H6            1 RES     
   31086 H6        1005.4117  -844.5417  -714.9064 H6            1 RES     
   31087 H6        1003.3349  -842.2858  -715.3009 H6            1 RES     
   31088 H6        1002.9335  -844.0244  -715.0594 H6            1 RES     
   31089 H6        1002.8110  -843.2278  -717.4298 H6            1 RES     
   31090 H6        1004.5537  -842.7774  -717.3772 H6            1 RES     
   31091 H6        1005.1287  -845.2400  -717.0254 H6            1 RES     
   31092 H6        1003.3656  -845.6099  -716.9894 H6            1 RES     
   31093 H6        1003.1358  -844.8287  -719.3524 H6            1 RES     
   31094 H6        1004.2887  -846.1972  -719.1601 H6            1 RES     
   31095 H6        1005.0921  -843.2366  -719.5179 H6            1 RES     
   31096 H6        1006.2248  -844.6271  -719.2651 H6            1 RES     
   31097 H6        1005.1907  -844.5441  -720.7411 H6            1 RES     
   31098 H6        1005.8293  -838.0203  -713.7002 H6            1 RES     
   31099 H6        1007.3689  -837.2316  -713.6089 H6            1 RES     
   31100 H6        1005.3220  -837.5140  -711.5417 H6            1 RES     
   31101 H6        1006.7213  -838.4898  -710.9692 H6            1 RES     
   31102 H6        1006.7989  -835.5120  -711.9105 H6            1 RES     
   31103 H6        1008.1503  -836.5648  -711.5197 H6            1 RES     
   31104 H6        1007.5009  -836.8491  -709.2210 H6            1 RES     
   31105 H6        1007.9997  -835.2187  -709.7146 H6            1 RES     
   31106 H6        1005.7292  -834.4262  -709.8076 H6            1 RES     
   31107 H6        1005.0675  -836.0278  -709.2813 H6            1 RES     
   31108 H6        1006.3740  -835.9460  -707.1852 H6            1 RES     
   31109 H6        1007.1895  -834.4191  -707.6657 H6            1 RES     
   31110 H6        1005.4157  -834.0768  -705.9843 H6            1 RES     
   31111 H6        1004.1673  -834.6924  -707.1309 H6            1 RES     
   31112 H6        1004.7342  -832.7636  -708.6918 H6            1 RES     
   31113 H6        1004.2866  -832.1780  -707.0541 H6            1 RES     
   31114 H6        1006.0213  -832.2329  -707.5375 H6            1 RES     
   31115 C0        1011.5298  -839.5860  -712.5727 C0            1 RES     
   31116 C0        1011.5806  -840.9857  -711.8082 C0            1 RES     
   31117 C0        1013.0282  -841.1194  -711.2261 C0            1 RES     
   31118 C0        1013.3979  -842.5103  -710.6723 C0            1 RES     
   31119 C0        1014.8199  -842.5895  -710.0893 C0            1 RES     
   31120 C0        1015.9632  -842.2761  -711.0709 C0            1 RES     
   31121 C0        1015.9553  -843.1012  -712.3685 C0            1 RES     
   31122 C0        1016.0024  -844.6205  -712.1283 C0            1 RES     
   31123 C0        1015.9887  -845.4308  -713.4346 C0            1 RES     
   31124 C0        1017.2635  -845.2345  -714.2745 C0            1 RES     
   31125 C0        1017.3084  -846.1371  -715.5173 C0            1 RES     
   31126 C0        1016.2222  -845.8080  -716.5415 C0            1 RES     
   31127 C0        1010.4965  -841.5043  -710.7724 C0            1 RES     
   31128 C0        1010.2989  -840.8347  -709.3830 C0            1 RES     
   31129 C0        1009.0068  -840.0012  -709.3126 C0            1 RES     
   31130 C0        1008.7499  -839.2513  -708.0159 C0            1 RES     
   31131 C0        1008.3372  -840.0811  -706.8083 C0            1 RES     
   31132 C0        1007.9689  -839.0911  -705.6844 C0            1 RES     
   31133 C0        1007.3797  -839.7431  -704.4323 C0            1 RES     
   31134 C0        1006.0016  -840.3545  -704.6896 C0            1 RES     
   31135 H6        1012.2502  -838.8881  -712.0858 H6            1 RES     
   31136 H6        1012.0570  -839.7818  -713.5338 H6            1 RES     
   31137 H6        1011.4831  -841.7355  -712.6270 H6            1 RES     
   31138 H6        1013.1650  -840.3692  -710.4175 H6            1 RES     
   31139 H6        1013.7448  -840.8784  -712.0406 H6            1 RES     
   31140 H6        1013.2674  -843.2702  -711.4711 H6            1 RES     
   31141 H6        1012.7369  -842.7751  -709.8244 H6            1 RES     
   31142 H6        1014.9630  -843.6146  -709.6857 H6            1 RES     
   31143 H6        1014.9013  -841.8911  -709.2276 H6            1 RES     
   31144 H6        1016.9247  -842.4433  -710.5379 H6            1 RES     
   31145 H6        1015.9253  -841.2005  -711.3463 H6            1 RES     
   31146 H6        1015.0492  -842.8526  -712.9614 H6            1 RES     
   31147 H6        1016.8413  -842.7817  -712.9541 H6            1 RES     
   31148 H6        1015.1002  -844.9216  -711.5559 H6            1 RES     
   31149 H6        1016.8996  -844.8883  -711.5294 H6            1 RES     
   31150 H6        1015.9153  -846.5062  -713.1625 H6            1 RES     
   31151 H6        1015.0833  -845.1568  -714.0168 H6            1 RES     
   31152 H6        1017.3676  -844.1788  -714.5996 H6            1 RES     
   31153 H6        1018.1386  -845.4930  -713.6390 H6            1 RES     
   31154 H6        1017.2239  -847.2027  -715.2123 H6            1 RES     
   31155 H6        1018.2949  -845.9953  -716.0091 H6            1 RES     
   31156 H6        1015.2094  -845.9820  -716.1256 H6            1 RES     
   31157 H6        1016.3106  -844.7501  -716.8684 H6            1 RES     
   31158 H6        1016.3445  -846.4644  -717.4287 H6            1 RES     
   31159 H6        1010.7959  -842.5458  -710.5539 H6            1 RES     
   31160 H6        1009.5232  -841.7415  -711.2416 H6            1 RES     
   31161 H6        1010.1443  -841.6446  -708.6363 H6            1 RES     
   31162 H6        1011.2058  -840.2728  -709.0807 H6            1 RES     
   31163 H6        1008.1260  -840.6346  -709.5643 H6            1 RES     
   31164 H6        1009.0530  -839.1930  -710.0339 H6            1 RES     
   31165 H6        1009.6174  -838.5978  -707.7787 H6            1 RES     
   31166 H6        1007.8694  -838.6217  -708.2251 H6            1 RES     
   31167 H6        1007.4535  -840.6872  -707.0998 H6            1 RES     
   31168 H6        1009.1560  -840.7584  -706.4876 H6            1 RES     
   31169 H6        1008.8894  -838.5352  -705.4000 H6            1 RES     
   31170 H6        1007.2270  -838.3460  -706.0536 H6            1 RES     
   31171 H6        1007.2518  -838.9420  -703.6715 H6            1 RES     
   31172 H6        1008.0793  -840.5038  -704.0326 H6            1 RES     
   31173 H6        1006.0585  -841.1924  -705.4125 H6            1 RES     
   31174 H6        1005.5908  -840.7458  -703.7363 H6            1 RES     
   31175 H6        1005.3045  -839.5817  -705.0816 H6            1 RES     
   31176 C0        1010.9927  -838.8367  -725.9248 C0            1 RES     
   31177 C1        1011.0030  -838.0675  -724.5854 C1            1 RES     
   31178 C1        1011.5182  -836.8169  -724.7111 C1            1 RES     
   31179 S2        1011.6290  -835.9892  -723.2603 S2            1 RES     
   31180 C1        1011.0201  -837.3120  -722.3826 C1            1 RES     
   31181 C1        1010.7432  -838.3817  -723.2410 C1            1 RES     
   31182 C1        1011.9203  -836.6229  -726.0503 C1            1 RES     
   31183 C1        1011.7191  -837.7728  -726.7491 C1            1 RES     
   31184 C1        1012.2253  -837.7011  -728.0413 C1            1 RES     
   31185 C1        1012.7800  -836.4335  -728.2857 C1            1 RES     
   31186 S2        1012.6654  -835.4217  -726.9269 S2            1 RES     
   31187 H3        1010.4218  -839.3348  -722.8659 H3            1 RES     
   31188 H3        1012.1992  -838.5139  -728.7573 H3            1 RES     
   31189 N4        1013.6862  -834.6254  -731.4416 N4            1 RES     
   31190 C1        1012.9838  -835.0272  -730.3419 C1            1 RES     
   31191 C1        1013.4928  -836.0228  -729.4902 C1            1 RES     
   31192 C1        1014.7424  -836.5690  -729.7888 C1            1 RES     
   31193 N4        1015.3720  -837.4935  -729.0193 N4            1 RES     
   31194 S2        1016.8021  -837.7019  -729.8212 S2            1 RES     
   31195 N4        1016.6819  -836.6784  -731.1159 N4            1 RES     
   31196 C1        1015.4606  -836.1207  -730.9257 C1            1 RES     
   31197 C1        1014.9040  -835.1504  -731.7548 C1            1 RES     
   31198 H5        1012.0179  -834.5756  -730.1328 H5            1 RES     
   31199 C0        1009.6247  -839.1578  -726.6234 C0            1 RES     
   31200 C0        1008.6076  -838.2058  -727.3591 C0            1 RES     
   31201 C0        1007.3825  -839.1174  -727.7203 C0            1 RES     
   31202 C0        1006.2472  -838.4666  -728.5203 C0            1 RES     
   31203 C0        1005.0739  -839.4422  -728.7735 C0            1 RES     
   31204 C0        1005.4081  -840.6917  -729.6179 C0            1 RES     
   31205 C0        1006.0367  -840.3963  -730.9912 C0            1 RES     
   31206 C0        1005.1583  -839.4928  -731.8747 C0            1 RES     
   31207 C0        1005.8125  -839.1540  -733.2219 C0            1 RES     
   31208 C0        1005.9629  -840.3743  -734.1459 C0            1 RES     
   31209 C0        1006.5122  -840.0044  -735.5329 C0            1 RES     
   31210 C0        1007.9477  -839.4790  -735.4918 C0            1 RES     
   31211 C0        1008.1647  -836.8714  -726.6748 C0            1 RES     
   31212 C0        1007.3468  -836.9298  -725.3480 C0            1 RES     
   31213 C0        1008.1230  -836.1905  -724.2540 C0            1 RES     
   31214 C0        1007.6861  -836.3904  -722.8056 C0            1 RES     
   31215 C0        1006.4793  -835.5858  -722.3453 C0            1 RES     
   31216 C0        1006.2455  -835.9016  -720.8530 C0            1 RES     
   31217 C0        1005.1826  -835.0274  -720.1835 C0            1 RES     
   31218 C0        1005.6277  -833.5692  -720.0541 C0            1 RES     
   31219 H6        1009.0316  -839.6573  -725.9006 H6            1 RES     
   31220 H6        1009.8877  -839.9016  -727.4092 H6            1 RES     
   31221 H6        1009.0996  -837.8856  -728.3046 H6            1 RES     
   31222 H6        1006.9354  -839.5183  -726.7844 H6            1 RES     
   31223 H6        1007.7642  -839.9809  -728.3061 H6            1 RES     
   31224 H6        1006.6369  -838.0660  -729.4782 H6            1 RES     
   31225 H6        1005.8255  -837.6239  -727.9360 H6            1 RES     
   31226 H6        1004.2590  -838.8792  -729.2738 H6            1 RES     
   31227 H6        1004.6654  -839.7861  -727.7974 H6            1 RES     
   31228 H6        1004.4682  -841.2685  -729.7669 H6            1 RES     
   31229 H6        1006.1027  -841.3501  -729.0537 H6            1 RES     
   31230 H6        1007.0280  -839.9180  -730.8448 H6            1 RES     
   31231 H6        1006.2025  -841.3715  -731.4944 H6            1 RES     
   31232 H6        1005.0030  -838.5255  -731.3548 H6            1 RES     
   31233 H6        1004.1647  -839.9638  -732.0409 H6            1 RES     
   31234 H6        1005.1619  -838.4112  -733.7330 H6            1 RES     
   31235 H6        1006.7968  -838.6788  -733.0272 H6            1 RES     
   31236 H6        1006.6265  -841.1384  -733.6907 H6            1 RES     
   31237 H6        1004.9565  -840.8245  -734.2899 H6            1 RES     
   31238 H6        1005.8516  -839.2484  -736.0108 H6            1 RES     
   31239 H6        1006.5022  -840.9195  -736.1636 H6            1 RES     
   31240 H6        1008.0157  -838.5326  -734.9183 H6            1 RES     
   31241 H6        1008.6196  -840.2361  -735.0348 H6            1 RES     
   31242 H6        1008.2940  -839.2752  -736.5266 H6            1 RES     
   31243 H6        1007.5468  -836.3080  -727.4064 H6            1 RES     
   31244 H6        1009.0601  -836.2223  -726.5678 H6            1 RES     
   31245 H6        1006.3592  -836.4312  -725.4706 H6            1 RES     
   31246 H6        1007.1675  -837.9847  -725.0570 H6            1 RES     
   31247 H6        1008.2659  -835.1153  -724.4918 H6            1 RES     
   31248 H6        1009.0857  -836.6550  -724.2804 H6            1 RES     
   31249 H6        1007.5411  -837.4574  -722.6201 H6            1 RES     
   31250 H6        1008.5412  -836.0611  -722.1724 H6            1 RES     
   31251 H6        1006.7264  -834.5126  -722.4888 H6            1 RES     
   31252 H6        1005.5743  -835.8356  -722.9384 H6            1 RES     
   31253 H6        1005.9363  -836.9684  -720.7720 H6            1 RES     
   31254 H6        1007.1912  -835.7820  -720.2768 H6            1 RES     
   31255 H6        1005.0237  -835.4178  -719.1542 H6            1 RES     
   31256 H6        1004.2227  -835.0957  -720.7374 H6            1 RES     
   31257 H6        1005.7686  -833.0975  -721.0466 H6            1 RES     
   31258 H6        1004.8562  -832.9939  -719.5031 H6            1 RES     
   31259 H6        1006.5823  -833.5097  -719.4849 H6            1 RES     
   31260 C0        1011.8465  -840.1389  -725.6581 C0            1 RES     
   31261 C0        1011.2817  -841.6309  -725.6264 C0            1 RES     
   31262 C0        1012.3160  -842.4781  -724.8110 C0            1 RES     
   31263 C0        1012.1206  -844.0065  -724.8712 C0            1 RES     
   31264 C0        1013.1438  -844.7974  -724.0371 C0            1 RES     
   31265 C0        1014.6190  -844.6061  -724.4320 C0            1 RES     
   31266 C0        1014.9383  -844.8674  -725.9134 C0            1 RES     
   31267 C0        1014.5494  -846.2801  -726.3837 C0            1 RES     
   31268 C0        1014.8703  -846.5234  -727.8673 C0            1 RES     
   31269 C0        1016.3814  -846.5305  -728.1599 C0            1 RES     
   31270 C0        1016.7091  -846.8969  -729.6157 C0            1 RES     
   31271 C0        1016.2143  -845.8606  -730.6248 C0            1 RES     
   31272 C0        1009.7926  -842.0399  -725.2626 C0            1 RES     
   31273 C0        1009.2194  -841.8695  -723.8273 C0            1 RES     
   31274 C0        1008.2229  -840.7004  -723.7291 C0            1 RES     
   31275 C0        1007.6509  -840.4068  -722.3520 C0            1 RES     
   31276 C0        1006.6249  -841.3900  -721.8065 C0            1 RES     
   31277 C0        1006.0744  -840.7885  -720.4972 C0            1 RES     
   31278 C0        1004.9126  -841.5688  -719.8795 C0            1 RES     
   31279 C0        1003.6479  -841.5031  -720.7370 C0            1 RES     
   31280 H6        1012.4531  -839.9683  -724.7385 H6            1 RES     
   31281 H6        1012.6508  -840.1688  -726.4276 H6            1 RES     
   31282 H6        1011.3499  -841.9599  -726.6891 H6            1 RES     
   31283 H6        1012.2871  -842.1597  -723.7465 H6            1 RES     
   31284 H6        1013.3287  -842.2507  -725.2082 H6            1 RES     
   31285 H6        1012.1492  -844.3389  -725.9301 H6            1 RES     
   31286 H6        1011.1391  -844.2862  -724.4417 H6            1 RES     
   31287 H6        1012.8860  -845.8750  -724.1194 H6            1 RES     
   31288 H6        1013.0331  -844.5219  -722.9653 H6            1 RES     
   31289 H6        1015.2312  -845.2872  -723.8011 H6            1 RES     
   31290 H6        1014.9315  -843.5679  -724.1901 H6            1 RES     
   31291 H6        1014.4171  -844.1157  -726.5440 H6            1 RES     
   31292 H6        1016.0298  -844.7135  -726.0355 H6            1 RES     
   31293 H6        1013.4528  -846.4076  -726.2687 H6            1 RES     
   31294 H6        1015.0561  -847.0473  -725.7590 H6            1 RES     
   31295 H6        1014.4597  -847.5196  -728.1411 H6            1 RES     
   31296 H6        1014.3512  -845.7537  -728.4771 H6            1 RES     
   31297 H6        1016.8357  -845.5443  -727.9321 H6            1 RES     
   31298 H6        1016.8560  -847.2941  -727.5056 H6            1 RES     
   31299 H6        1016.2779  -847.8920  -729.8601 H6            1 RES     
   31300 H6        1017.8142  -846.9658  -729.7120 H6            1 RES     
   31301 H6        1015.1083  -845.7836  -730.6147 H6            1 RES     
   31302 H6        1016.6558  -844.8660  -730.4016 H6            1 RES     
   31303 H6        1016.5261  -846.1656  -731.6459 H6            1 RES     
   31304 H6        1009.7434  -843.1248  -725.4691 H6            1 RES     
   31305 H6        1009.0553  -841.7260  -726.0252 H6            1 RES     
   31306 H6        1008.6090  -842.7706  -723.5978 H6            1 RES     
   31307 H6        1010.0348  -841.8208  -723.0775 H6            1 RES     
   31308 H6        1007.3950  -840.8378  -724.4613 H6            1 RES     
   31309 H6        1008.7263  -839.7698  -723.9662 H6            1 RES     
   31310 H6        1008.4771  -840.2421  -721.6266 H6            1 RES     
   31311 H6        1007.0865  -839.4680  -722.4765 H6            1 RES     
   31312 H6        1005.8160  -841.4891  -722.5610 H6            1 RES     
   31313 H6        1007.0799  -842.3859  -721.6247 H6            1 RES     
   31314 H6        1006.9077  -840.7438  -719.7618 H6            1 RES     
   31315 H6        1005.7221  -839.7454  -720.6695 H6            1 RES     
   31316 H6        1004.6775  -841.0929  -718.9022 H6            1 RES     
   31317 H6        1005.2118  -842.6204  -719.6995 H6            1 RES     
   31318 H6        1003.7967  -841.9978  -721.7174 H6            1 RES     
   31319 H6        1002.8205  -842.0202  -720.2093 H6            1 RES     
   31320 H6        1003.3506  -840.4446  -720.9044 H6            1 RES     
   31321 C0        1016.7720  -834.6783  -736.8406 C0            1 RES     
   31322 C1        1016.4261  -834.4806  -735.3483 C1            1 RES     
   31323 C1        1017.2124  -833.5456  -734.7545 C1            1 RES     
   31324 S2        1016.9255  -833.3728  -733.1144 S2            1 RES     
   31325 C1        1015.7444  -834.5959  -733.1245 C1            1 RES     
   31326 C1        1015.5970  -835.1217  -734.4127 C1            1 RES     
   31327 C1        1018.1398  -833.0623  -735.7028 C1            1 RES     
   31328 C1        1017.9797  -833.7403  -736.8713 C1            1 RES     
   31329 C1        1018.9545  -833.4170  -737.8076 C1            1 RES     
   31330 C1        1019.8264  -832.4407  -737.2969 C1            1 RES     
   31331 S2        1019.4151  -831.9945  -735.7109 S2            1 RES     
   31332 H3        1014.9518  -835.9570  -734.6085 H3            1 RES     
   31333 H3        1019.0320  -833.8621  -738.7923 H3            1 RES     
   31334 N4        1022.2743  -830.1196  -738.9310 N4            1 RES     
   31335 C1        1021.1268  -830.5896  -738.3597 C1            1 RES     
   31336 C1        1021.0264  -831.9306  -737.9506 C1            1 RES     
   31337 C1        1022.1381  -832.7570  -738.1245 C1            1 RES     
   31338 N4        1022.1933  -834.0524  -737.7216 N4            1 RES     
   31339 S2        1023.7385  -834.4791  -738.1242 S2            1 RES     
   31340 N4        1024.3660  -833.1032  -738.7962 N4            1 RES     
   31341 C1        1023.3247  -832.2398  -738.7022 C1            1 RES     
   31342 C1        1023.3680  -830.9110  -739.1159 C1            1 RES     
   31343 H5        1020.2825  -829.9179  -738.2305 H5            1 RES     
   31344 C0        1015.7538  -834.2129  -737.9403 C0            1 RES     
   31345 C0        1015.3454  -832.7635  -738.4035 C0            1 RES     
   31346 C0        1014.1914  -832.9773  -739.4452 C0            1 RES     
   31347 C0        1013.6361  -831.7225  -740.1304 C0            1 RES     
   31348 C0        1012.4718  -832.0479  -741.0955 C0            1 RES     
   31349 C0        1012.8247  -832.9577  -742.2928 C0            1 RES     
   31350 C0        1013.9901  -832.4581  -743.1648 C0            1 RES     
   31351 C0        1013.7528  -831.0503  -743.7395 C0            1 RES     
   31352 C0        1014.9404  -830.5315  -744.5629 C0            1 RES     
   31353 C0        1015.1669  -831.3212  -745.8631 C0            1 RES     
   31354 C0        1016.2835  -830.7234  -746.7338 C0            1 RES     
   31355 C0        1017.6652  -830.8096  -746.0845 C0            1 RES     
   31356 C0        1014.9772  -831.6851  -737.3327 C0            1 RES     
   31357 C0        1013.7135  -831.8947  -736.4428 C0            1 RES     
   31358 C0        1014.1409  -831.9186  -734.9722 C0            1 RES     
   31359 C0        1013.1383  -832.4321  -733.9427 C0            1 RES     
   31360 C0        1012.0586  -831.4541  -733.5030 C0            1 RES     
   31361 C0        1011.1943  -832.1571  -732.4353 C0            1 RES     
   31362 C0        1010.1764  -831.2441  -731.7480 C0            1 RES     
   31363 C0        1010.8461  -830.1922  -730.8612 C0            1 RES     
   31364 H6        1014.8300  -834.6770  -737.7057 H6            1 RES     
   31365 H6        1016.1321  -834.6800  -738.8775 H6            1 RES     
   31366 H6        1016.2265  -832.3402  -738.9355 H6            1 RES     
   31367 H6        1013.3363  -833.4834  -738.9461 H6            1 RES     
   31368 H6        1014.5708  -833.6605  -740.2350 H6            1 RES     
   31369 H6        1014.4485  -831.1881  -740.6634 H6            1 RES     
   31370 H6        1013.2170  -831.0422  -739.3618 H6            1 RES     
   31371 H6        1012.0654  -831.0901  -741.4810 H6            1 RES     
   31372 H6        1011.6479  -832.5328  -740.5262 H6            1 RES     
   31373 H6        1011.9162  -833.0602  -742.9274 H6            1 RES     
   31374 H6        1013.0775  -833.9760  -741.9275 H6            1 RES     
   31375 H6        1014.9236  -832.4587  -742.5635 H6            1 RES     
   31376 H6        1014.1195  -833.1872  -743.9914 H6            1 RES     
   31377 H6        1013.6244  -830.3375  -742.8996 H6            1 RES     
   31378 H6        1012.8267  -831.0357  -744.3549 H6            1 RES     
   31379 H6        1014.7248  -829.4748  -744.8332 H6            1 RES     
   31380 H6        1015.8481  -830.5489  -743.9237 H6            1 RES     
   31381 H6        1015.4114  -832.3818  -745.6467 H6            1 RES     
   31382 H6        1014.2253  -831.2917  -746.4535 H6            1 RES     
   31383 H6        1016.0488  -829.6631  -746.9725 H6            1 RES     
   31384 H6        1016.3193  -831.2921  -747.6880 H6            1 RES     
   31385 H6        1017.7106  -830.2153  -745.1497 H6            1 RES     
   31386 H6        1017.9181  -831.8679  -745.8612 H6            1 RES     
   31387 H6        1018.4256  -830.4027  -746.7835 H6            1 RES     
   31388 H6        1014.8374  -830.7192  -737.8635 H6            1 RES     
   31389 H6        1015.8783  -831.4895  -736.7129 H6            1 RES     
   31390 H6        1012.9903  -831.0597  -736.5808 H6            1 RES     
   31391 H6        1013.2054  -832.8409  -736.7191 H6            1 RES     
   31392 H6        1014.5999  -830.9600  -734.6510 H6            1 RES     
   31393 H6        1014.9078  -832.6635  -734.9523 H6            1 RES     
   31394 H6        1012.6996  -833.3648  -734.3054 H6            1 RES     
   31395 H6        1013.7261  -832.6798  -733.0297 H6            1 RES     
   31396 H6        1012.5732  -830.5678  -733.0749 H6            1 RES     
   31397 H6        1011.4280  -831.1332  -734.3589 H6            1 RES     
   31398 H6        1010.6502  -832.9934  -732.9300 H6            1 RES     
   31399 H6        1011.8390  -832.5995  -731.6419 H6            1 RES     
   31400 H6        1009.5442  -831.8790  -731.0889 H6            1 RES     
   31401 H6        1009.5218  -830.7599  -732.5028 H6            1 RES     
   31402 H6        1011.4658  -829.4932  -731.4567 H6            1 RES     
   31403 H6        1010.0686  -829.6031  -730.3337 H6            1 RES     
   31404 H6        1011.4882  -830.6874  -730.0987 H6            1 RES     
   31405 C0        1017.1411  -836.2081  -736.9785 C0            1 RES     
   31406 C0        1016.2939  -837.3010  -737.7747 C0            1 RES     
   31407 C0        1016.7096  -838.6937  -737.1916 C0            1 RES     
   31408 C0        1016.2201  -839.9216  -737.9857 C0            1 RES     
   31409 C0        1016.6311  -841.2681  -737.3641 C0            1 RES     
   31410 C0        1018.1454  -841.5068  -737.2271 C0            1 RES     
   31411 C0        1018.9538  -841.3373  -738.5242 C0            1 RES     
   31412 C0        1018.4782  -842.2526  -739.6662 C0            1 RES     
   31413 C0        1019.2928  -842.0673  -740.9566 C0            1 RES     
   31414 C0        1020.7550  -842.5259  -740.8128 C0            1 RES     
   31415 C0        1021.5377  -842.4591  -742.1335 C0            1 RES     
   31416 C0        1021.7215  -841.0337  -742.6546 C0            1 RES     
   31417 C0        1014.7312  -837.2346  -738.0403 C0            1 RES     
   31418 C0        1013.6940  -837.3736  -736.8901 C0            1 RES     
   31419 C0        1013.0250  -836.0326  -736.5390 C0            1 RES     
   31420 C0        1012.0390  -836.0456  -735.3825 C0            1 RES     
   31421 C0        1010.6911  -836.7077  -735.6315 C0            1 RES     
   31422 C0        1009.8193  -836.4390  -734.3878 C0            1 RES     
   31423 C0        1008.3669  -836.9010  -734.5191 C0            1 RES     
   31424 C0        1007.5889  -836.0844  -735.5521 C0            1 RES     
   31425 H6        1017.3596  -836.6009  -735.9583 H6            1 RES     
   31426 H6        1018.1545  -836.2625  -737.4369 H6            1 RES     
   31427 H6        1016.6988  -837.2427  -738.8114 H6            1 RES     
   31428 H6        1016.3366  -838.7762  -736.1478 H6            1 RES     
   31429 H6        1017.8198  -838.7310  -737.1616 H6            1 RES     
   31430 H6        1016.5875  -839.8531  -739.0311 H6            1 RES     
   31431 H6        1015.1135  -839.9522  -738.0036 H6            1 RES     
   31432 H6        1016.1944  -842.0761  -737.9893 H6            1 RES     
   31433 H6        1016.1727  -841.3601  -736.3549 H6            1 RES     
   31434 H6        1018.2934  -842.5375  -736.8369 H6            1 RES     
   31435 H6        1018.5594  -840.8081  -736.4692 H6            1 RES     
   31436 H6        1018.9025  -840.2790  -738.8583 H6            1 RES     
   31437 H6        1020.0102  -841.5620  -738.2723 H6            1 RES     
   31438 H6        1017.4258  -842.0007  -739.9135 H6            1 RES     
   31439 H6        1018.5154  -843.3169  -739.3479 H6            1 RES     
   31440 H6        1018.8130  -842.6828  -741.7485 H6            1 RES     
   31441 H6        1019.2392  -841.0014  -741.2643 H6            1 RES     
   31442 H6        1021.2898  -841.9192  -740.0533 H6            1 RES     
   31443 H6        1020.7528  -843.5856  -740.4761 H6            1 RES     
   31444 H6        1021.0282  -843.0763  -742.9050 H6            1 RES     
   31445 H6        1022.5467  -842.8902  -741.9568 H6            1 RES     
   31446 H6        1020.7473  -840.5655  -742.9012 H6            1 RES     
   31447 H6        1022.2484  -840.4135  -741.8985 H6            1 RES     
   31448 H6        1022.3329  -841.0584  -743.5810 H6            1 RES     
   31449 H6        1014.5279  -838.0824  -738.7200 H6            1 RES     
   31450 H6        1014.4417  -836.4296  -738.7417 H6            1 RES     
   31451 H6        1012.8594  -838.0078  -737.2624 H6            1 RES     
   31452 H6        1014.1386  -837.8896  -736.0151 H6            1 RES     
   31453 H6        1012.5427  -835.5949  -737.4424 H6            1 RES     
   31454 H6        1013.7735  -835.3311  -736.1880 H6            1 RES     
   31455 H6        1012.5284  -836.4568  -734.4729 H6            1 RES     
   31456 H6        1011.7920  -834.9848  -735.2119 H6            1 RES     
   31457 H6        1010.2432  -836.2360  -736.5316 H6            1 RES     
   31458 H6        1010.8054  -837.7975  -735.8077 H6            1 RES     
   31459 H6        1010.2845  -836.9600  -733.5222 H6            1 RES     
   31460 H6        1009.8035  -835.3493  -734.1552 H6            1 RES     
   31461 H6        1007.8789  -836.7417  -733.5325 H6            1 RES     
   31462 H6        1008.3304  -837.9813  -734.7630 H6            1 RES     
   31463 H6        1007.9968  -836.2273  -736.5724 H6            1 RES     
   31464 H6        1006.5286  -836.4105  -735.5534 H6            1 RES     
   31465 H6        1007.6237  -835.0033  -735.2938 H6            1 RES     
   31466 C0        1027.1358  -829.4290  -742.7472 C0            1 RES     
   31467 C1        1026.2852  -829.6475  -741.4765 C1            1 RES     
   31468 C1        1026.9614  -829.3332  -740.3411 C1            1 RES     
   31469 S2        1026.0999  -829.6459  -738.9402 S2            1 RES     
   31470 C1        1024.7786  -830.2663  -739.8121 C1            1 RES     
   31471 C1        1025.0360  -830.2211  -741.1866 C1            1 RES     
   31472 C1        1028.2684  -828.9276  -740.6874 C1            1 RES     
   31473 C1        1028.4338  -829.0506  -742.0321 C1            1 RES     
   31474 C1        1029.7430  -828.8047  -742.4282 C1            1 RES     
   31475 C1        1030.5373  -828.4574  -741.3224 C1            1 RES     
   31476 S2        1029.6467  -828.4696  -739.8767 S2            1 RES     
   31477 H3        1024.3517  -830.6386  -741.9006 H3            1 RES     
   31478 H3        1030.1000  -828.8771  -743.4485 H3            1 RES     
   31479 N4        1033.8781  -826.7841  -741.0229 N4            1 RES     
   31480 C1        1032.5253  -826.9672  -741.0497 C1            1 RES     
   31481 C1        1031.9781  -828.2303  -741.3341 C1            1 RES     
   31482 C1        1032.8556  -829.2913  -741.5644 C1            1 RES     
   31483 N4        1032.4599  -830.5699  -741.7926 N4            1 RES     
   31484 S2        1033.9028  -831.3654  -741.9234 S2            1 RES     
   31485 N4        1035.0314  -830.1744  -741.7091 N4            1 RES     
   31486 C1        1034.2562  -829.0795  -741.5116 C1            1 RES     
   31487 C1        1034.7517  -827.8045  -741.2517 C1            1 RES     
   31488 H5        1031.8697  -826.1223  -740.8572 H5            1 RES     
   31489 C0        1026.7614  -828.2737  -743.7411 C0            1 RES     
   31490 C0        1026.8997  -826.7120  -743.5873 C0            1 RES     
   31491 C0        1026.2309  -826.1137  -744.8746 C0            1 RES     
   31492 C0        1026.2820  -824.5894  -745.0367 C0            1 RES     
   31493 C0        1025.5491  -824.1103  -746.3119 C0            1 RES     
   31494 C0        1026.1324  -824.6115  -747.6515 C0            1 RES     
   31495 C0        1027.6256  -824.3053  -747.8629 C0            1 RES     
   31496 C0        1027.9513  -822.8035  -747.7781 C0            1 RES     
   31497 C0        1029.4495  -822.5058  -747.9336 C0            1 RES     
   31498 C0        1029.9869  -822.8215  -749.3397 C0            1 RES     
   31499 C0        1031.4578  -822.4130  -749.5185 C0            1 RES     
   31500 C0        1032.4174  -823.2182  -748.6415 C0            1 RES     
   31501 C0        1026.3897  -826.0157  -742.2833 C0            1 RES     
   31502 C0        1024.8660  -826.0414  -741.9512 C0            1 RES     
   31503 C0        1024.6653  -826.7272  -740.5964 C0            1 RES     
   31504 C0        1023.2525  -827.1594  -740.2142 C0            1 RES     
   31505 C0        1022.3327  -826.0710  -739.6802 C0            1 RES     
   31506 C0        1020.9865  -826.7309  -739.3150 C0            1 RES     
   31507 C0        1020.0104  -825.8069  -738.5831 C0            1 RES     
   31508 C0        1020.4933  -825.4502  -737.1757 C0            1 RES     
   31509 H6        1025.7419  -828.4174  -743.9934 H6            1 RES     
   31510 H6        1027.3634  -828.4919  -744.6520 H6            1 RES     
   31511 H6        1027.9888  -826.4852  -743.6181 H6            1 RES     
   31512 H6        1025.1595  -826.4101  -744.9025 H6            1 RES     
   31513 H6        1026.7281  -826.5698  -745.7573 H6            1 RES     
   31514 H6        1027.3348  -824.2410  -745.0360 H6            1 RES     
   31515 H6        1025.7571  -824.1139  -744.1837 H6            1 RES     
   31516 H6        1025.5499  -823.0006  -746.3137 H6            1 RES     
   31517 H6        1024.4829  -824.4241  -746.2622 H6            1 RES     
   31518 H6        1025.5477  -824.1478  -748.4770 H6            1 RES     
   31519 H6        1025.9892  -825.7101  -747.7345 H6            1 RES     
   31520 H6        1028.2230  -824.8558  -747.1058 H6            1 RES     
   31521 H6        1027.9040  -824.6968  -748.8634 H6            1 RES     
   31522 H6        1027.6650  -822.4313  -746.7734 H6            1 RES     
   31523 H6        1027.3692  -822.2389  -748.5391 H6            1 RES     
   31524 H6        1029.5972  -821.4205  -747.7425 H6            1 RES     
   31525 H6        1030.0052  -823.0744  -747.1586 H6            1 RES     
   31526 H6        1029.8853  -823.9020  -749.5710 H6            1 RES     
   31527 H6        1029.3844  -822.2468  -750.0766 H6            1 RES     
   31528 H6        1031.5768  -821.3286  -749.3038 H6            1 RES     
   31529 H6        1031.7381  -822.5875  -750.5797 H6            1 RES     
   31530 H6        1032.2228  -823.0447  -747.5639 H6            1 RES     
   31531 H6        1032.3210  -824.3022  -748.8636 H6            1 RES     
   31532 H6        1033.4607  -822.9036  -748.8537 H6            1 RES     
   31533 H6        1026.6872  -824.9465  -742.3354 H6            1 RES     
   31534 H6        1026.9944  -826.3911  -741.4301 H6            1 RES     
   31535 H6        1024.4596  -825.0075  -741.8807 H6            1 RES     
   31536 H6        1024.3112  -826.5772  -742.7480 H6            1 RES     
   31537 H6        1025.1614  -826.1783  -739.7684 H6            1 RES     
   31538 H6        1025.1771  -827.6585  -740.7152 H6            1 RES     
   31539 H6        1022.7965  -827.6790  -741.0605 H6            1 RES     
   31540 H6        1023.3641  -827.9045  -739.3939 H6            1 RES     
   31541 H6        1022.8205  -825.6420  -738.7794 H6            1 RES     
   31542 H6        1022.1768  -825.2669  -740.4301 H6            1 RES     
   31543 H6        1020.5096  -827.0829  -740.2578 H6            1 RES     
   31544 H6        1021.1527  -827.6236  -738.6698 H6            1 RES     
   31545 H6        1019.0468  -826.3516  -738.4745 H6            1 RES     
   31546 H6        1019.8294  -824.8878  -739.1792 H6            1 RES     
   31547 H6        1021.4351  -824.8675  -737.2045 H6            1 RES     
   31548 H6        1019.7228  -824.8389  -736.6636 H6            1 RES     
   31549 H6        1020.6576  -826.3768  -736.5814 H6            1 RES     
   31550 C0        1027.1805  -830.8381  -743.4600 C0            1 RES     
   31551 C0        1026.4944  -831.1966  -744.8553 C0            1 RES     
   31552 C0        1026.3282  -832.7536  -744.8793 C0            1 RES     
   31553 C0        1025.9307  -833.3604  -746.2401 C0            1 RES     
   31554 C0        1025.7554  -834.8890  -746.2117 C0            1 RES     
   31555 C0        1027.0006  -835.6974  -745.8056 C0            1 RES     
   31556 C0        1028.2688  -835.3986  -746.6224 C0            1 RES     
   31557 C0        1028.0895  -835.6202  -748.1346 C0            1 RES     
   31558 C0        1029.3641  -835.3124  -748.9370 C0            1 RES     
   31559 C0        1030.5115  -836.2940  -748.6383 C0            1 RES     
   31560 C0        1031.7432  -836.0664  -749.5284 C0            1 RES     
   31561 C0        1032.4275  -834.7222  -749.2795 C0            1 RES     
   31562 C0        1025.2183  -830.4749  -745.4616 C0            1 RES     
   31563 C0        1023.8103  -830.6127  -744.8163 C0            1 RES     
   31564 C0        1023.3723  -829.3305  -744.0858 C0            1 RES     
   31565 C0        1022.0355  -829.3804  -743.3646 C0            1 RES     
   31566 C0        1020.7832  -829.3724  -744.2300 C0            1 RES     
   31567 C0        1019.5764  -829.2510  -743.2772 C0            1 RES     
   31568 C0        1018.2290  -829.0725  -743.9791 C0            1 RES     
   31569 C0        1018.1207  -827.7250  -744.6943 C0            1 RES     
   31570 H6        1026.8882  -831.6103  -742.7108 H6            1 RES     
   31571 H6        1028.2529  -831.0979  -743.6094 H6            1 RES     
   31572 H6        1027.2756  -830.9362  -745.6063 H6            1 RES     
   31573 H6        1025.5674  -833.0490  -744.1248 H6            1 RES     
   31574 H6        1027.2992  -833.2029  -744.5793 H6            1 RES     
   31575 H6        1026.6841  -833.0744  -747.0038 H6            1 RES     
   31576 H6        1024.9431  -832.9752  -746.5595 H6            1 RES     
   31577 H6        1025.4319  -835.2108  -747.2246 H6            1 RES     
   31578 H6        1024.9298  -835.1495  -745.5134 H6            1 RES     
   31579 H6        1026.7512  -836.7769  -745.9005 H6            1 RES     
   31580 H6        1027.2277  -835.5075  -744.7349 H6            1 RES     
   31581 H6        1028.5886  -834.3500  -746.4419 H6            1 RES     
   31582 H6        1029.0633  -836.0669  -746.2322 H6            1 RES     
   31583 H6        1027.3029  -834.9315  -748.5076 H6            1 RES     
   31584 H6        1027.7621  -836.6633  -748.3351 H6            1 RES     
   31585 H6        1029.1102  -835.3946  -750.0163 H6            1 RES     
   31586 H6        1029.6732  -834.2656  -748.7311 H6            1 RES     
   31587 H6        1030.8252  -836.2284  -747.5761 H6            1 RES     
   31588 H6        1030.1426  -837.3250  -748.8313 H6            1 RES     
   31589 H6        1031.4543  -836.1461  -750.5989 H6            1 RES     
   31590 H6        1032.4790  -836.8696  -749.3081 H6            1 RES     
   31591 H6        1031.7583  -833.8756  -749.5335 H6            1 RES     
   31592 H6        1032.7387  -834.6409  -748.2162 H6            1 RES     
   31593 H6        1033.3314  -834.6472  -749.9199 H6            1 RES     
   31594 H6        1025.1157  -830.8977  -746.4778 H6            1 RES     
   31595 H6        1025.4134  -829.4309  -745.7712 H6            1 RES     
   31596 H6        1023.0708  -830.7260  -745.6394 H6            1 RES     
   31597 H6        1023.7495  -831.5238  -744.1873 H6            1 RES     
   31598 H6        1023.3933  -828.4633  -744.7843 H6            1 RES     
   31599 H6        1024.0583  -829.1201  -743.2729 H6            1 RES     
   31600 H6        1022.0244  -830.2294  -742.6470 H6            1 RES     
   31601 H6        1021.9830  -828.4325  -742.8041 H6            1 RES     
   31602 H6        1020.8410  -828.4896  -744.9013 H6            1 RES     
   31603 H6        1020.7129  -830.2948  -744.8433 H6            1 RES     
   31604 H6        1019.5367  -830.1707  -742.6530 H6            1 RES     
   31605 H6        1019.7124  -828.3842  -742.5900 H6            1 RES     
   31606 H6        1017.4416  -829.0973  -743.1941 H6            1 RES     
   31607 H6        1018.0527  -829.9080  -744.6853 H6            1 RES     
   31608 H6        1018.8535  -827.6450  -745.5216 H6            1 RES     
   31609 H6        1017.1024  -827.6177  -745.1210 H6            1 RES     
   31610 H6        1018.2899  -826.8930  -743.9759 H6            1 RES     
   31611 C0        1039.8684  -826.6492  -742.6878 C0            1 RES     
   31612 C1        1038.5621  -826.9656  -741.9268 C1            1 RES     
   31613 C1        1038.7898  -827.3343  -740.6394 C1            1 RES     
   31614 S2        1037.4018  -827.7733  -739.8128 S2            1 RES     
   31615 C1        1036.4269  -827.5236  -741.1833 C1            1 RES     
   31616 C1        1037.2060  -827.1036  -742.2669 C1            1 RES     
   31617 C1        1040.1824  -827.3431  -740.4081 C1            1 RES     
   31618 C1        1040.8304  -827.0450  -741.5666 C1            1 RES     
   31619 C1        1042.2090  -827.1753  -741.4494 C1            1 RES     
   31620 C1        1042.5612  -827.5485  -740.1414 C1            1 RES     
   31621 S2        1041.1962  -827.7327  -739.1483 S2            1 RES     
   31622 H3        1036.7828  -826.9667  -743.2439 H3            1 RES     
   31623 H3        1042.9121  -827.0158  -742.2582 H3            1 RES     
   31624 N4        1045.7968  -827.4306  -738.2527 N4            1 RES     
   31625 C1        1044.5591  -827.0839  -738.7132 C1            1 RES     
   31626 C1        1043.9023  -827.8762  -739.6706 C1            1 RES     
   31627 C1        1044.5410  -829.0346  -740.1168 C1            1 RES     
   31628 N4        1043.9940  -829.9152  -740.9936 N4            1 RES     
   31629 S2        1045.1572  -831.0858  -741.0864 S2            1 RES     
   31630 N4        1046.3446  -830.5445  -740.0688 N4            1 RES     
   31631 C1        1045.8176  -829.3830  -739.6085 C1            1 RES     
   31632 C1        1046.4404  -828.5530  -738.6801 C1            1 RES     
   31633 H5        1044.0855  -826.1804  -738.3389 H5            1 RES     
   31634 C0        1040.1801  -825.1703  -743.1105 C0            1 RES     
   31635 C0        1040.5892  -823.9250  -742.2366 C0            1 RES     
   31636 C0        1040.6298  -822.7181  -743.2386 C0            1 RES     
   31637 C0        1041.0767  -821.3640  -742.6737 C0            1 RES     
   31638 C0        1041.0291  -820.2407  -743.7362 C0            1 RES     
   31639 C0        1041.9643  -820.4242  -744.9517 C0            1 RES     
   31640 C0        1043.4482  -820.6337  -744.6016 C0            1 RES     
   31641 C0        1044.0383  -819.4850  -743.7645 C0            1 RES     
   31642 C0        1045.5028  -819.7229  -743.3693 C0            1 RES     
   31643 C0        1046.4643  -819.7063  -744.5696 C0            1 RES     
   31644 C0        1047.9381  -819.8305  -744.1513 C0            1 RES     
   31645 C0        1048.2722  -821.1809  -743.5163 C0            1 RES     
   31646 C0        1039.7766  -823.5876  -740.9439 C0            1 RES     
   31647 C0        1038.2803  -823.1664  -741.0722 C0            1 RES     
   31648 C0        1037.4175  -824.1537  -740.2804 C0            1 RES     
   31649 C0        1035.9106  -824.1416  -740.5208 C0            1 RES     
   31650 C0        1035.1212  -823.0491  -739.8146 C0            1 RES     
   31651 C0        1033.6298  -823.2522  -740.1550 C0            1 RES     
   31652 C0        1032.6760  -822.3495  -739.3692 C0            1 RES     
   31653 C0        1032.6339  -822.7049  -737.8815 C0            1 RES     
   31654 H6        1039.3371  -824.8336  -743.6580 H6            1 RES     
   31655 H6        1041.0266  -825.2643  -743.8276 H6            1 RES     
   31656 H6        1041.6238  -824.1175  -741.8745 H6            1 RES     
   31657 H6        1039.6187  -822.5720  -743.6776 H6            1 RES     
   31658 H6        1041.3190  -822.9890  -744.0669 H6            1 RES     
   31659 H6        1042.0936  -821.4490  -742.2394 H6            1 RES     
   31660 H6        1040.3788  -821.0558  -741.8692 H6            1 RES     
   31661 H6        1041.2763  -819.2818  -743.2355 H6            1 RES     
   31662 H6        1039.9882  -820.1384  -744.1155 H6            1 RES     
   31663 H6        1041.8690  -819.5240  -745.5989 H6            1 RES     
   31664 H6        1041.6257  -821.2920  -745.5570 H6            1 RES     
   31665 H6        1043.5624  -821.5898  -744.0486 H6            1 RES     
   31666 H6        1044.0024  -820.7279  -745.5585 H6            1 RES     
   31667 H6        1043.4710  -819.4059  -742.8148 H6            1 RES     
   31668 H6        1043.9423  -818.5208  -744.3103 H6            1 RES     
   31669 H6        1045.8001  -818.9056  -742.6766 H6            1 RES     
   31670 H6        1045.5688  -820.6856  -742.8201 H6            1 RES     
   31671 H6        1046.2249  -820.5226  -745.2822 H6            1 RES     
   31672 H6        1046.3430  -818.7344  -745.0957 H6            1 RES     
   31673 H6        1048.2003  -819.0116  -743.4464 H6            1 RES     
   31674 H6        1048.5660  -819.7170  -745.0612 H6            1 RES     
   31675 H6        1047.7142  -821.3322  -742.5704 H6            1 RES     
   31676 H6        1048.0332  -822.0052  -744.2214 H6            1 RES     
   31677 H6        1049.3565  -821.2179  -743.2811 H6            1 RES     
   31678 H6        1040.2995  -822.7550  -740.4265 H6            1 RES     
   31679 H6        1039.8984  -824.4284  -740.2279 H6            1 RES     
   31680 H6        1038.1189  -822.1487  -740.6511 H6            1 RES     
   31681 H6        1037.9790  -823.1505  -742.1393 H6            1 RES     
   31682 H6        1037.6572  -824.1476  -739.1962 H6            1 RES     
   31683 H6        1037.7147  -825.1046  -740.6687 H6            1 RES     
   31684 H6        1035.7205  -824.1308  -741.5968 H6            1 RES     
   31685 H6        1035.5233  -825.1098  -740.1294 H6            1 RES     
   31686 H6        1035.2982  -823.1687  -738.7247 H6            1 RES     
   31687 H6        1035.4543  -822.0381  -740.1308 H6            1 RES     
   31688 H6        1033.4960  -823.0556  -741.2429 H6            1 RES     
   31689 H6        1033.3273  -824.3073  -739.9653 H6            1 RES     
   31690 H6        1031.6524  -822.5045  -739.7759 H6            1 RES     
   31691 H6        1032.9520  -821.2831  -739.5090 H6            1 RES     
   31692 H6        1033.6151  -822.5366  -737.3954 H6            1 RES     
   31693 H6        1031.8806  -822.0716  -737.3706 H6            1 RES     
   31694 H6        1032.3421  -823.7710  -737.7511 H6            1 RES     
   31695 C0        1039.8758  -827.6363  -743.9211 C0            1 RES     
   31696 C0        1039.7314  -827.2122  -745.4526 C0            1 RES     
   31697 C0        1039.2474  -828.4880  -746.2211 C0            1 RES     
   31698 C0        1039.2921  -828.3961  -747.7598 C0            1 RES     
   31699 C0        1038.7858  -829.6621  -748.4731 C0            1 RES     
   31700 C0        1039.5590  -830.9570  -748.1660 C0            1 RES     
   31701 C0        1041.0778  -830.8811  -748.3943 C0            1 RES     
   31702 C0        1041.4620  -830.4840  -749.8305 C0            1 RES     
   31703 C0        1042.9829  -830.4077  -750.0408 C0            1 RES     
   31704 C0        1043.6725  -831.7792  -749.9292 C0            1 RES     
   31705 C0        1045.1717  -831.7261  -750.2618 C0            1 RES     
   31706 C0        1045.9828  -830.9017  -749.2620 C0            1 RES     
   31707 C0        1038.9900  -825.9115  -745.9776 C0            1 RES     
   31708 C0        1037.4493  -825.7379  -745.8593 C0            1 RES     
   31709 C0        1037.0557  -824.7224  -744.7716 C0            1 RES     
   31710 C0        1035.5683  -824.5251  -744.5301 C0            1 RES     
   31711 C0        1034.7917  -823.7602  -745.5927 C0            1 RES     
   31712 C0        1033.3674  -823.5426  -745.0422 C0            1 RES     
   31713 C0        1032.4795  -822.6521  -745.9133 C0            1 RES     
   31714 C0        1032.9619  -821.2011  -745.9416 C0            1 RES     
   31715 H6        1039.1498  -828.4553  -743.7086 H6            1 RES     
   31716 H6        1040.8342  -828.2019  -743.8847 H6            1 RES     
   31717 H6        1040.7811  -827.0137  -745.7699 H6            1 RES     
   31718 H6        1038.2068  -828.7253  -745.9112 H6            1 RES     
   31719 H6        1039.8971  -829.3356  -745.9139 H6            1 RES     
   31720 H6        1040.3277  -828.1609  -748.0836 H6            1 RES     
   31721 H6        1038.6211  -827.5910  -748.1168 H6            1 RES     
   31722 H6        1038.8232  -829.4714  -749.5669 H6            1 RES     
   31723 H6        1037.7170  -829.8262  -748.2123 H6            1 RES     
   31724 H6        1039.1344  -831.7654  -748.8007 H6            1 RES     
   31725 H6        1039.3836  -831.2464  -747.1079 H6            1 RES     
   31726 H6        1041.5247  -830.1549  -747.6822 H6            1 RES     
   31727 H6        1041.4859  -831.8844  -748.1556 H6            1 RES     
   31728 H6        1041.0587  -829.4719  -750.0432 H6            1 RES     
   31729 H6        1041.0173  -831.1958  -750.5592 H6            1 RES     
   31730 H6        1043.1615  -830.0124  -751.0645 H6            1 RES     
   31731 H6        1043.4099  -829.6878  -749.3106 H6            1 RES     
   31732 H6        1043.5504  -832.2048  -748.9119 H6            1 RES     
   31733 H6        1043.1905  -832.4680  -750.6570 H6            1 RES     
   31734 H6        1045.3162  -831.3190  -751.2861 H6            1 RES     
   31735 H6        1045.5643  -832.7657  -750.2444 H6            1 RES     
   31736 H6        1045.6726  -829.8374  -749.2710 H6            1 RES     
   31737 H6        1045.8614  -831.3131  -748.2373 H6            1 RES     
   31738 H6        1047.0576  -830.9467  -749.5368 H6            1 RES     
   31739 H6        1039.2034  -825.8878  -747.0620 H6            1 RES     
   31740 H6        1039.5169  -824.9742  -745.7180 H6            1 RES     
   31741 H6        1037.0870  -825.2802  -746.8062 H6            1 RES     
   31742 H6        1036.9463  -826.7201  -745.7514 H6            1 RES     
   31743 H6        1037.5406  -823.7395  -744.9691 H6            1 RES     
   31744 H6        1037.3957  -825.0730  -743.8035 H6            1 RES     
   31745 H6        1035.0887  -825.5025  -744.3055 H6            1 RES     
   31746 H6        1035.5115  -823.8808  -743.6373 H6            1 RES     
   31747 H6        1035.3022  -822.7867  -745.7503 H6            1 RES     
   31748 H6        1034.7652  -824.3192  -746.5512 H6            1 RES     
   31749 H6        1032.8832  -824.5384  -744.9367 H6            1 RES     
   31750 H6        1033.4112  -823.0813  -744.0286 H6            1 RES     
   31751 H6        1031.4630  -822.6565  -745.4619 H6            1 RES     
   31752 H6        1032.4141  -823.0652  -746.9394 H6            1 RES     
   31753 H6        1033.9585  -821.1145  -746.4183 H6            1 RES     
   31754 H6        1032.2441  -820.5878  -746.5239 H6            1 RES     
   31755 H6        1033.0154  -820.7928  -744.9084 H6            1 RES     
   31756 C0        1051.8276  -828.9330  -738.0391 C0            1 RES     
   31757 C1        1050.2928  -828.9909  -737.8763 C1            1 RES     
   31758 C1        1049.9092  -829.8380  -736.8861 C1            1 RES     
   31759 S2        1048.2486  -829.9944  -736.7443 S2            1 RES     
   31760 C1        1047.9713  -828.9478  -738.0553 C1            1 RES     
   31761 C1        1049.1851  -828.4957  -738.5845 C1            1 RES     
   31762 C1        1051.0597  -830.4357  -736.3276 C1            1 RES     
   31763 C1        1052.1588  -830.0150  -737.0102 C1            1 RES     
   31764 C1        1053.3147  -830.6731  -736.6076 C1            1 RES     
   31765 C1        1053.0332  -831.5768  -735.5692 C1            1 RES     
   31766 S2        1051.3841  -831.5792  -735.1642 S2            1 RES     
   31767 H3        1049.2209  -827.8846  -739.4663 H3            1 RES     
   31768 H3        1054.2950  -830.5133  -737.0404 H3            1 RES     
   31769 N4        1055.2067  -833.3134  -733.0571 N4            1 RES     
   31770 C1        1054.3593  -832.4012  -733.6175 C1            1 RES     
   31771 C1        1053.9731  -832.5140  -734.9643 C1            1 RES     
   31772 C1        1054.4617  -833.5944  -735.7011 C1            1 RES     
   31773 N4        1054.1223  -833.8516  -736.9903 N4            1 RES     
   31774 S2        1054.9378  -835.2568  -737.2939 S2            1 RES     
   31775 N4        1055.7184  -835.5761  -735.8701 N4            1 RES     
   31776 C1        1055.3247  -834.5388  -735.0906 C1            1 RES     
   31777 C1        1055.7003  -834.3710  -733.7604 C1            1 RES     
   31778 H5        1053.9898  -831.5767  -733.0140 H5            1 RES     
   31779 C0        1052.5994  -827.6235  -737.6486 C0            1 RES     
   31780 C0        1052.8976  -826.9998  -736.2330 C0            1 RES     
   31781 C0        1053.5945  -825.6256  -736.5303 C0            1 RES     
   31782 C0        1054.0718  -824.8149  -735.3190 C0            1 RES     
   31783 C0        1054.6950  -823.4598  -735.7289 C0            1 RES     
   31784 C0        1055.9662  -823.5407  -736.6026 C0            1 RES     
   31785 C0        1057.1071  -824.3863  -736.0097 C0            1 RES     
   31786 C0        1057.5599  -823.8996  -734.6217 C0            1 RES     
   31787 C0        1058.6595  -824.7783  -734.0082 C0            1 RES     
   31788 C0        1059.9926  -824.7012  -734.7715 C0            1 RES     
   31789 C0        1061.1166  -825.4931  -734.0846 C0            1 RES     
   31790 C0        1060.8666  -827.0015  -734.0666 C0            1 RES     
   31791 C0        1051.7397  -826.8576  -735.1917 C0            1 RES     
   31792 C0        1050.5476  -825.9012  -735.5031 C0            1 RES     
   31793 C0        1049.2480  -826.7118  -735.5012 C0            1 RES     
   31794 C0        1047.9997  -826.0661  -736.0960 C0            1 RES     
   31795 C0        1047.2599  -825.0773  -735.2069 C0            1 RES     
   31796 C0        1046.0171  -824.5887  -735.9802 C0            1 RES     
   31797 C0        1045.0573  -823.7311  -735.1522 C0            1 RES     
   31798 C0        1044.3573  -824.5371  -734.0560 C0            1 RES     
   31799 H6        1052.1363  -826.8345  -738.1841 H6            1 RES     
   31800 H6        1053.6157  -827.7669  -738.0803 H6            1 RES     
   31801 H6        1053.6365  -827.6703  -735.7400 H6            1 RES     
   31802 H6        1052.8964  -824.9772  -737.1037 H6            1 RES     
   31803 H6        1054.4747  -825.8257  -737.1781 H6            1 RES     
   31804 H6        1054.7903  -825.4111  -734.7205 H6            1 RES     
   31805 H6        1053.2013  -824.5712  -734.6770 H6            1 RES     
   31806 H6        1054.9317  -822.8951  -734.8035 H6            1 RES     
   31807 H6        1053.9373  -822.8589  -736.2790 H6            1 RES     
   31808 H6        1056.3345  -822.5043  -736.7720 H6            1 RES     
   31809 H6        1055.7091  -823.9570  -737.6000 H6            1 RES     
   31810 H6        1056.7802  -825.4453  -735.9409 H6            1 RES     
   31811 H6        1057.9565  -824.3399  -736.7225 H6            1 RES     
   31812 H6        1056.6984  -823.9518  -733.9253 H6            1 RES     
   31813 H6        1057.9021  -822.8429  -734.6759 H6            1 RES     
   31814 H6        1058.8343  -824.4207  -732.9701 H6            1 RES     
   31815 H6        1058.2897  -825.8240  -733.9584 H6            1 RES     
   31816 H6        1059.8776  -825.0723  -735.8110 H6            1 RES     
   31817 H6        1060.3060  -823.6352  -734.8121 H6            1 RES     
   31818 H6        1061.2556  -825.1254  -733.0445 H6            1 RES     
   31819 H6        1062.0593  -825.3105  -734.6440 H6            1 RES     
   31820 H6        1059.9637  -827.2549  -733.4752 H6            1 RES     
   31821 H6        1060.7472  -827.3823  -735.1032 H6            1 RES     
   31822 H6        1061.7341  -827.5121  -733.5985 H6            1 RES     
   31823 H6        1052.1880  -826.5088  -734.2369 H6            1 RES     
   31824 H6        1051.3812  -827.8761  -734.9299 H6            1 RES     
   31825 H6        1050.4637  -825.1086  -734.7261 H6            1 RES     
   31826 H6        1050.7009  -825.4081  -736.4845 H6            1 RES     
   31827 H6        1049.0379  -827.1691  -734.5114 H6            1 RES     
   31828 H6        1049.4550  -827.5078  -736.1844 H6            1 RES     
   31829 H6        1048.2546  -825.6151  -737.0581 H6            1 RES     
   31830 H6        1047.2859  -826.8959  -736.3020 H6            1 RES     
   31831 H6        1046.9638  -825.6223  -734.2855 H6            1 RES     
   31832 H6        1047.9054  -824.2166  -734.9316 H6            1 RES     
   31833 H6        1046.3681  -823.9937  -736.8536 H6            1 RES     
   31834 H6        1045.4389  -825.4549  -736.3752 H6            1 RES     
   31835 H6        1044.2688  -823.3495  -735.8375 H6            1 RES     
   31836 H6        1045.5948  -822.8627  -734.7165 H6            1 RES     
   31837 H6        1045.0797  -824.9192  -733.3082 H6            1 RES     
   31838 H6        1043.6246  -823.8907  -733.5317 H6            1 RES     
   31839 H6        1043.8094  -825.3962  -734.5038 H6            1 RES     
   31840 C0        1052.0995  -829.3619  -739.5350 C0            1 RES     
   31841 C0        1052.6654  -828.4132  -740.6864 C0            1 RES     
   31842 C0        1052.2523  -829.0722  -742.0455 C0            1 RES     
   31843 C0        1052.9163  -828.4772  -743.3037 C0            1 RES     
   31844 C0        1052.4636  -829.1388  -744.6174 C0            1 RES     
   31845 C0        1052.7465  -830.6468  -744.7386 C0            1 RES     
   31846 C0        1054.2088  -831.0587  -744.5004 C0            1 RES     
   31847 C0        1055.2033  -830.3599  -745.4441 C0            1 RES     
   31848 C0        1056.6605  -830.7784  -745.1897 C0            1 RES     
   31849 C0        1056.9284  -832.2544  -745.5343 C0            1 RES     
   31850 C0        1058.4091  -832.6428  -745.4004 C0            1 RES     
   31851 C0        1058.9235  -832.5735  -743.9624 C0            1 RES     
   31852 C0        1052.4977  -826.8365  -740.7399 C0            1 RES     
   31853 C0        1051.1144  -826.1629  -740.9648 C0            1 RES     
   31854 C0        1050.5612  -825.5176  -739.6814 C0            1 RES     
   31855 C0        1049.1823  -824.8857  -739.7766 C0            1 RES     
   31856 C0        1049.0754  -823.5731  -740.5399 C0            1 RES     
   31857 C0        1047.6361  -823.0537  -740.3460 C0            1 RES     
   31858 C0        1047.3826  -821.6579  -740.9185 C0            1 RES     
   31859 C0        1048.1458  -820.5714  -740.1596 C0            1 RES     
   31860 H6        1051.1865  -829.8770  -739.9148 H6            1 RES     
   31861 H6        1052.8155  -830.2143  -739.5084 H6            1 RES     
   31862 H6        1053.7711  -828.5166  -740.5916 H6            1 RES     
   31863 H6        1051.1491  -829.0032  -742.1618 H6            1 RES     
   31864 H6        1052.5239  -830.1487  -741.9967 H6            1 RES     
   31865 H6        1054.0199  -828.5415  -743.2017 H6            1 RES     
   31866 H6        1052.6357  -827.4125  -743.4199 H6            1 RES     
   31867 H6        1052.9685  -828.6095  -745.4536 H6            1 RES     
   31868 H6        1051.3709  -828.9791  -744.7497 H6            1 RES     
   31869 H6        1052.4375  -830.9702  -745.7567 H6            1 RES     
   31870 H6        1052.1107  -831.1984  -744.0136 H6            1 RES     
   31871 H6        1054.4893  -830.8414  -743.4476 H6            1 RES     
   31872 H6        1054.2572  -832.1574  -744.6438 H6            1 RES     
   31873 H6        1055.1510  -829.2643  -745.2733 H6            1 RES     
   31874 H6        1054.9345  -830.5599  -746.5039 H6            1 RES     
   31875 H6        1057.3091  -830.1485  -745.8366 H6            1 RES     
   31876 H6        1056.9147  -830.5654  -744.1296 H6            1 RES     
   31877 H6        1056.3260  -832.9291  -744.8917 H6            1 RES     
   31878 H6        1056.6311  -832.4212  -746.5926 H6            1 RES     
   31879 H6        1059.0302  -831.9899  -746.0513 H6            1 RES     
   31880 H6        1058.5224  -833.6907  -745.7529 H6            1 RES     
   31881 H6        1058.8860  -831.5373  -743.5700 H6            1 RES     
   31882 H6        1058.3219  -833.2387  -743.3070 H6            1 RES     
   31883 H6        1059.9809  -832.9111  -743.9350 H6            1 RES     
   31884 H6        1053.1190  -826.5192  -741.5975 H6            1 RES     
   31885 H6        1053.0740  -826.3095  -739.9564 H6            1 RES     
   31886 H6        1051.2639  -825.3074  -741.6598 H6            1 RES     
   31887 H6        1050.4054  -826.8645  -741.4491 H6            1 RES     
   31888 H6        1051.2894  -824.7778  -739.2779 H6            1 RES     
   31889 H6        1050.4072  -826.2798  -738.9258 H6            1 RES     
   31890 H6        1048.4495  -825.6320  -740.1532 H6            1 RES     
   31891 H6        1048.9241  -824.6171  -738.7390 H6            1 RES     
   31892 H6        1049.8087  -822.8646  -740.0999 H6            1 RES     
   31893 H6        1049.3040  -823.7149  -741.6168 H6            1 RES     
   31894 H6        1046.9418  -823.7729  -740.8336 H6            1 RES     
   31895 H6        1047.3798  -823.0216  -739.2619 H6            1 RES     
   31896 H6        1046.2971  -821.4453  -740.8025 H6            1 RES     
   31897 H6        1047.6353  -821.6360  -741.9971 H6            1 RES     
   31898 H6        1049.2417  -820.6968  -740.2653 H6            1 RES     
   31899 H6        1047.8694  -819.5773  -740.5669 H6            1 RES     
   31900 H6        1047.8787  -820.5955  -739.0803 H6            1 RES     
   31901 C0        1060.1739  -836.8945  -731.9726 C0            1 RES     
   31902 C1        1058.7270  -836.4385  -732.2627 C1            1 RES     
   31903 C1        1057.8084  -837.3721  -731.9025 C1            1 RES     
   31904 S2        1056.2356  -836.9479  -732.2881 S2            1 RES     
   31905 C1        1056.7343  -835.4889  -733.0047 C1            1 RES     
   31906 C1        1058.1257  -835.3601  -732.9329 C1            1 RES     
   31907 C1        1058.4839  -838.5031  -731.3951 C1            1 RES     
   31908 C1        1059.8261  -838.3063  -731.4982 C1            1 RES     
   31909 C1        1060.5542  -839.4375  -731.1496 C1            1 RES     
   31910 C1        1059.6952  -840.4741  -730.7472 C1            1 RES     
   31911 S2        1058.0636  -840.0120  -730.8357 S2            1 RES     
   31912 H3        1058.6391  -834.5404  -733.3986 H3            1 RES     
   31913 H3        1061.6346  -839.5089  -731.1889 H3            1 RES     
   31914 N4        1060.2652  -843.6390  -728.8214 N4            1 RES     
   31915 C1        1059.9306  -842.3469  -729.1087 C1            1 RES     
   31916 C1        1060.0893  -841.8371  -730.4090 C1            1 RES     
   31917 C1        1060.5752  -842.6947  -731.3976 C1            1 RES     
   31918 N4        1060.7212  -842.3468  -732.7019 N4            1 RES     
   31919 S2        1061.2569  -843.7545  -733.3824 S2            1 RES     
   31920 N4        1061.3244  -844.8085  -732.1086 N4            1 RES     
   31921 C1        1060.8969  -844.0378  -731.0782 C1            1 RES     
   31922 C1        1060.7474  -844.4903  -729.7699 C1            1 RES     
   31923 H5        1059.5467  -841.7079  -728.3182 H5            1 RES     
   31924 C0        1060.9998  -836.1811  -730.8448 C0            1 RES     
   31925 C0        1060.8487  -836.2410  -729.2778 C0            1 RES     
   31926 C0        1061.8920  -835.2064  -728.7267 C0            1 RES     
   31927 C0        1062.0224  -835.0998  -727.2023 C0            1 RES     
   31928 C0        1063.0398  -834.0157  -726.7751 C0            1 RES     
   31929 C0        1064.4995  -834.2493  -727.2228 C0            1 RES     
   31930 C0        1065.0980  -835.6027  -726.8007 C0            1 RES     
   31931 C0        1065.0655  -835.8281  -725.2787 C0            1 RES     
   31932 C0        1065.6118  -837.2021  -724.8649 C0            1 RES     
   31933 C0        1067.1184  -837.3600  -725.1309 C0            1 RES     
   31934 C0        1067.6768  -838.6934  -724.6087 C0            1 RES     
   31935 C0        1067.1124  -839.9111  -725.3415 C0            1 RES     
   31936 C0        1059.4380  -836.0540  -728.6297 C0            1 RES     
   31937 C0        1058.7078  -834.6834  -728.7752 C0            1 RES     
   31938 C0        1057.3673  -834.9082  -729.4812 C0            1 RES     
   31939 C0        1056.6294  -833.6874  -730.0236 C0            1 RES     
   31940 C0        1055.8392  -832.8697  -729.0125 C0            1 RES     
   31941 C0        1055.1413  -831.7249  -729.7766 C0            1 RES     
   31942 C0        1054.1497  -830.9187  -728.9347 C0            1 RES     
   31943 C0        1052.9160  -831.7375  -728.5487 C0            1 RES     
   31944 H6        1060.9713  -835.1447  -731.0658 H6            1 RES     
   31945 H6        1062.0446  -836.5280  -731.0110 H6            1 RES     
   31946 H6        1061.1664  -837.2614  -728.9671 H6            1 RES     
   31947 H6        1061.6374  -834.1923  -729.1052 H6            1 RES     
   31948 H6        1062.8876  -835.4778  -729.1385 H6            1 RES     
   31949 H6        1062.2969  -836.0850  -726.7734 H6            1 RES     
   31950 H6        1061.0474  -834.7923  -726.7732 H6            1 RES     
   31951 H6        1063.0131  -833.9346  -725.6687 H6            1 RES     
   31952 H6        1062.7124  -833.0289  -727.1709 H6            1 RES     
   31953 H6        1065.1244  -833.4304  -726.8017 H6            1 RES     
   31954 H6        1064.5692  -834.1698  -728.3288 H6            1 RES     
   31955 H6        1064.5446  -836.4216  -727.3070 H6            1 RES     
   31956 H6        1066.1463  -835.6274  -727.1645 H6            1 RES     
   31957 H6        1064.0116  -835.7984  -724.9347 H6            1 RES     
   31958 H6        1065.6263  -835.0218  -724.7571 H6            1 RES     
   31959 H6        1065.4396  -837.3161  -723.7724 H6            1 RES     
   31960 H6        1065.0304  -837.9872  -725.3925 H6            1 RES     
   31961 H6        1067.3415  -837.2790  -726.2149 H6            1 RES     
   31962 H6        1067.6503  -836.5400  -724.6010 H6            1 RES     
   31963 H6        1067.4742  -838.7863  -723.5194 H6            1 RES     
   31964 H6        1068.7784  -838.6876  -724.7557 H6            1 RES     
   31965 H6        1066.0182  -840.0036  -725.1889 H6            1 RES     
   31966 H6        1067.3282  -839.8378  -726.4286 H6            1 RES     
   31967 H6        1067.5900  -840.8318  -724.9458 H6            1 RES     
   31968 H6        1059.5408  -836.2470  -727.5405 H6            1 RES     
   31969 H6        1058.7896  -836.8930  -728.9614 H6            1 RES     
   31970 H6        1058.5037  -834.2366  -727.7763 H6            1 RES     
   31971 H6        1059.3390  -833.9743  -729.3484 H6            1 RES     
   31972 H6        1056.6900  -835.5685  -728.8997 H6            1 RES     
   31973 H6        1057.6438  -835.4354  -730.3694 H6            1 RES     
   31974 H6        1057.3344  -833.0585  -730.5728 H6            1 RES     
   31975 H6        1055.8891  -834.0715  -730.7618 H6            1 RES     
   31976 H6        1055.0926  -833.5505  -728.5514 H6            1 RES     
   31977 H6        1056.4981  -832.4578  -728.2191 H6            1 RES     
   31978 H6        1055.9292  -831.0374  -730.1598 H6            1 RES     
   31979 H6        1054.5882  -832.1247  -730.6569 H6            1 RES     
   31980 H6        1053.7992  -830.0632  -729.5531 H6            1 RES     
   31981 H6        1054.6509  -830.5161  -728.0295 H6            1 RES     
   31982 H6        1053.1828  -832.5909  -727.8946 H6            1 RES     
   31983 H6        1052.1994  -831.0919  -728.0015 H6            1 RES     
   31984 H6        1052.4122  -832.1241  -729.4627 H6            1 RES     
   31985 C0        1060.9085  -836.8474  -733.3703 C0            1 RES     
   31986 C0        1062.0757  -835.8371  -733.7740 C0            1 RES     
   31987 C0        1062.0942  -835.7852  -735.3390 C0            1 RES     
   31988 C0        1063.3125  -835.0794  -735.9680 C0            1 RES     
   31989 C0        1063.2773  -835.0308  -737.5057 C0            1 RES     
   31990 C0        1063.2433  -836.3953  -738.2171 C0            1 RES     
   31991 C0        1064.3639  -837.3692  -737.8168 C0            1 RES     
   31992 C0        1065.7769  -836.8035  -738.0441 C0            1 RES     
   31993 C0        1066.8852  -837.7869  -737.6344 C0            1 RES     
   31994 C0        1066.9325  -839.0410  -738.5255 C0            1 RES     
   31995 C0        1068.1158  -839.9652  -738.1987 C0            1 RES     
   31996 C0        1068.0262  -840.5910  -736.8067 C0            1 RES     
   31997 C0        1062.2964  -834.3951  -733.1503 C0            1 RES     
   31998 C0        1061.2989  -833.2287  -733.4001 C0            1 RES     
   31999 C0        1060.4445  -832.9124  -732.1594 C0            1 RES     
   32000 C0        1059.3908  -831.8284  -732.3164 C0            1 RES     
   32001 C0        1059.8857  -830.3914  -732.4013 C0            1 RES     
   32002 C0        1058.6398  -829.4825  -732.3786 C0            1 RES     
   32003 C0        1058.9473  -827.9859  -732.3016 C0            1 RES     
   32004 C0        1059.5717  -827.5894  -730.9629 C0            1 RES     
   32005 H6        1060.1284  -836.8266  -734.1666 H6            1 RES     
   32006 H6        1061.3484  -837.8553  -733.5455 H6            1 RES     
   32007 H6        1063.0027  -836.3642  -733.4500 H6            1 RES     
   32008 H6        1061.1703  -835.2811  -735.6963 H6            1 RES     
   32009 H6        1062.0790  -836.8314  -735.7132 H6            1 RES     
   32010 H6        1064.2434  -835.5745  -735.6206 H6            1 RES     
   32011 H6        1063.3435  -834.0166  -735.6589 H6            1 RES     
   32012 H6        1064.1733  -834.4694  -737.8466 H6            1 RES     
   32013 H6        1062.3890  -834.4468  -737.8330 H6            1 RES     
   32014 H6        1063.2952  -836.2093  -739.3123 H6            1 RES     
   32015 H6        1062.2689  -836.8895  -738.0156 H6            1 RES     
   32016 H6        1064.2493  -837.6482  -736.7475 H6            1 RES     
   32017 H6        1064.2199  -838.2864  -738.4234 H6            1 RES     
   32018 H6        1065.9059  -835.8970  -737.4166 H6            1 RES     
   32019 H6        1065.9084  -836.5114  -739.1084 H6            1 RES     
   32020 H6        1067.8576  -837.2567  -737.7306 H6            1 RES     
   32021 H6        1066.7434  -838.0626  -736.5678 H6            1 RES     
   32022 H6        1065.9931  -839.6252  -738.4411 H6            1 RES     
   32023 H6        1067.0454  -838.7102  -739.5811 H6            1 RES     
   32024 H6        1069.0704  -839.4037  -738.2951 H6            1 RES     
   32025 H6        1068.1231  -840.7901  -738.9434 H6            1 RES     
   32026 H6        1068.0682  -839.8178  -736.0133 H6            1 RES     
   32027 H6        1067.0846  -841.1718  -736.7069 H6            1 RES     
   32028 H6        1068.8846  -841.2794  -736.6587 H6            1 RES     
   32029 H6        1063.2578  -834.0522  -733.5748 H6            1 RES     
   32030 H6        1062.6201  -834.4220  -732.0929 H6            1 RES     
   32031 H6        1061.8946  -832.3042  -733.5663 H6            1 RES     
   32032 H6        1060.7005  -833.4076  -734.3164 H6            1 RES     
   32033 H6        1061.1001  -832.6796  -731.2898 H6            1 RES     
   32034 H6        1059.8416  -833.7756  -731.9006 H6            1 RES     
   32035 H6        1058.7190  -832.0744  -733.1673 H6            1 RES     
   32036 H6        1058.8127  -831.8605  -731.3783 H6            1 RES     
   32037 H6        1060.5247  -830.2002  -731.5133 H6            1 RES     
   32038 H6        1060.4809  -830.2253  -733.3233 H6            1 RES     
   32039 H6        1058.0520  -829.6809  -733.3017 H6            1 RES     
   32040 H6        1057.9927  -829.7357  -731.5073 H6            1 RES     
   32041 H6        1057.9799  -827.4447  -732.3913 H6            1 RES     
   32042 H6        1059.6010  -827.6866  -733.1447 H6            1 RES     
   32043 H6        1060.5637  -828.0626  -730.8223 H6            1 RES     
   32044 H6        1059.7049  -826.4885  -730.9329 H6            1 RES     
   32045 H6        1058.9043  -827.8855  -730.1240 H6            1 RES     
   32046 C0        1063.4805  -848.9274  -728.2141 C0            1 RES     
   32047 C1        1062.4037  -847.9030  -728.6346 C1            1 RES     
   32048 C1        1061.2355  -848.4975  -728.9911 C1            1 RES     
   32049 S2        1060.0767  -847.4215  -729.5404 S2            1 RES     
   32050 C1        1061.1264  -846.0961  -729.3603 C1            1 RES     
   32051 C1        1062.3688  -846.5194  -728.8757 C1            1 RES     
   32052 C1        1061.3889  -849.8974  -728.8930 C1            1 RES     
   32053 C1        1062.6711  -850.1835  -728.5397 C1            1 RES     
   32054 C1        1062.9337  -851.5480  -728.5633 C1            1 RES     
   32055 C1        1061.7793  -852.2679  -728.9147 C1            1 RES     
   32056 S2        1060.4599  -851.2404  -729.2091 S2            1 RES     
   32057 H3        1063.1915  -845.8385  -728.7671 H3            1 RES     
   32058 H3        1063.8978  -851.9919  -728.3457 H3            1 RES     
   32059 N4        1060.8313  -855.8766  -728.5556 N4            1 RES     
   32060 C1        1060.9317  -854.5384  -728.3036 C1            1 RES     
   32061 C1        1061.6965  -853.7067  -729.1397 C1            1 RES     
   32062 C1        1062.3282  -854.2837  -730.2428 C1            1 RES     
   32063 N4        1063.0473  -853.5856  -731.1588 N4            1 RES     
   32064 S2        1063.4807  -854.7626  -732.2352 S2            1 RES     
   32065 N4        1062.8076  -856.1383  -731.6086 N4            1 RES     
   32066 C1        1062.1924  -855.6721  -730.4938 C1            1 RES     
   32067 C1        1061.4454  -856.4607  -729.6226 C1            1 RES     
   32068 H5        1060.4203  -854.1191  -727.4415 H5            1 RES     
   32069 C0        1063.9333  -849.0036  -726.7134 C0            1 RES     
   32070 C0        1063.1704  -849.5418  -725.4445 C0            1 RES     
   32071 C0        1064.1147  -849.2208  -724.2331 C0            1 RES     
   32072 C0        1063.6566  -849.7036  -722.8512 C0            1 RES     
   32073 C0        1064.6374  -849.2876  -721.7297 C0            1 RES     
   32074 C0        1066.0645  -849.8693  -721.8341 C0            1 RES     
   32075 C0        1066.1333  -851.4036  -721.9296 C0            1 RES     
   32076 C0        1065.4571  -852.1127  -720.7428 C0            1 RES     
   32077 C0        1065.4780  -853.6428  -720.8684 C0            1 RES     
   32078 C0        1066.8924  -854.2392  -720.7713 C0            1 RES     
   32079 C0        1066.8906  -855.7761  -720.7830 C0            1 RES     
   32080 C0        1066.4044  -856.3679  -722.1065 C0            1 RES     
   32081 C0        1061.6982  -849.0874  -725.1776 C0            1 RES     
   32082 C0        1061.4070  -847.5857  -724.8731 C0            1 RES     
   32083 C0        1060.4376  -847.0446  -725.9283 C0            1 RES     
   32084 C0        1060.2621  -845.5323  -726.0318 C0            1 RES     
   32085 C0        1059.3411  -844.8859  -725.0074 C0            1 RES     
   32086 C0        1059.2716  -843.3771  -725.3238 C0            1 RES     
   32087 C0        1058.2346  -842.6085  -724.5017 C0            1 RES     
   32088 C0        1056.8004  -842.9973  -724.8667 C0            1 RES     
   32089 H6        1064.2242  -848.0215  -726.4404 H6            1 RES     
   32090 H6        1064.8545  -849.6286  -726.7379 H6            1 RES     
   32091 H6        1063.1060  -850.6471  -725.5580 H6            1 RES     
   32092 H6        1064.2606  -848.1206  -724.1637 H6            1 RES     
   32093 H6        1065.1049  -849.6776  -724.4456 H6            1 RES     
   32094 H6        1063.5151  -850.8035  -722.8593 H6            1 RES     
   32095 H6        1062.6860  -849.2291  -722.6022 H6            1 RES     
   32096 H6        1064.1974  -849.5902  -720.7570 H6            1 RES     
   32097 H6        1064.7191  -848.1782  -721.7065 H6            1 RES     
   32098 H6        1066.6386  -849.5364  -720.9407 H6            1 RES     
   32099 H6        1066.5782  -849.4438  -722.7225 H6            1 RES     
   32100 H6        1065.6565  -851.7332  -722.8767 H6            1 RES     
   32101 H6        1067.2063  -851.6832  -721.9758 H6            1 RES     
   32102 H6        1064.3879  -851.8198  -720.7127 H6            1 RES     
   32103 H6        1065.9317  -851.8020  -719.7863 H6            1 RES     
   32104 H6        1064.8704  -854.0560  -720.0340 H6            1 RES     
   32105 H6        1064.9921  -853.9255  -721.8259 H6            1 RES     
   32106 H6        1067.5348  -853.8761  -721.6001 H6            1 RES     
   32107 H6        1067.3410  -853.9089  -719.8091 H6            1 RES     
   32108 H6        1066.2617  -856.1588  -719.9497 H6            1 RES     
   32109 H6        1067.9330  -856.1239  -720.6166 H6            1 RES     
   32110 H6        1065.3472  -856.0997  -722.3054 H6            1 RES     
   32111 H6        1067.0399  -856.0078  -722.9433 H6            1 RES     
   32112 H6        1066.4716  -857.4751  -722.0605 H6            1 RES     
   32113 H6        1061.3197  -849.6685  -724.3095 H6            1 RES     
   32114 H6        1061.0635  -849.4600  -726.0100 H6            1 RES     
   32115 H6        1060.9318  -847.4704  -723.8731 H6            1 RES     
   32116 H6        1062.3525  -847.0062  -724.8752 H6            1 RES     
   32117 H6        1059.4585  -847.5680  -725.9090 H6            1 RES     
   32118 H6        1060.9161  -847.2943  -726.8513 H6            1 RES     
   32119 H6        1061.2462  -845.0574  -726.0304 H6            1 RES     
   32120 H6        1059.8058  -845.3376  -727.0291 H6            1 RES     
   32121 H6        1058.3428  -845.3599  -725.1183 H6            1 RES     
   32122 H6        1059.7092  -845.0458  -723.9720 H6            1 RES     
   32123 H6        1060.2776  -842.9394  -725.1327 H6            1 RES     
   32124 H6        1059.0346  -843.2155  -726.4001 H6            1 RES     
   32125 H6        1058.3538  -841.5272  -724.7336 H6            1 RES     
   32126 H6        1058.4160  -842.7573  -723.4165 H6            1 RES     
   32127 H6        1056.5928  -844.0584  -724.6253 H6            1 RES     
   32128 H6        1056.0890  -842.3663  -724.2963 H6            1 RES     
   32129 H6        1056.6236  -842.8307  -725.9529 H6            1 RES     
   32130 C0        1064.6952  -848.6725  -729.1914 C0            1 RES     
   32131 C0        1066.1194  -848.0878  -728.7722 C0            1 RES     
   32132 C0        1066.7615  -847.5086  -730.0778 C0            1 RES     
   32133 C0        1068.2523  -847.1277  -729.9750 C0            1 RES     
   32134 C0        1068.8350  -846.5412  -731.2729 C0            1 RES     
   32135 C0        1068.7814  -847.4615  -732.5055 C0            1 RES     
   32136 C0        1069.4090  -848.8517  -732.3109 C0            1 RES     
   32137 C0        1070.8849  -848.8022  -731.8780 C0            1 RES     
   32138 C0        1071.4957  -850.1994  -731.6829 C0            1 RES     
   32139 C0        1071.6098  -850.9919  -732.9974 C0            1 RES     
   32140 C0        1072.3331  -852.3369  -732.8265 C0            1 RES     
   32141 C0        1071.5683  -853.3258  -731.9467 C0            1 RES     
   32142 C0        1066.3912  -847.1386  -727.5303 C0            1 RES     
   32143 C0        1065.8571  -845.6792  -727.4772 C0            1 RES     
   32144 C0        1064.6777  -845.5219  -726.5008 C0            1 RES     
   32145 C0        1064.0388  -844.1452  -726.4206 C0            1 RES     
   32146 C0        1064.8323  -843.0558  -725.7130 C0            1 RES     
   32147 C0        1063.9125  -841.8221  -725.6092 C0            1 RES     
   32148 C0        1064.4884  -840.6685  -724.7859 C0            1 RES     
   32149 C0        1064.6083  -841.0176  -723.3017 C0            1 RES     
   32150 H6        1064.3159  -848.0934  -730.0653 H6            1 RES     
   32151 H6        1064.9334  -849.6438  -729.6813 H6            1 RES     
   32152 H6        1066.7030  -848.9948  -728.4913 H6            1 RES     
   32153 H6        1066.1886  -846.6111  -730.3967 H6            1 RES     
   32154 H6        1066.6630  -848.2775  -730.8740 H6            1 RES     
   32155 H6        1068.8373  -848.0166  -729.6586 H6            1 RES     
   32156 H6        1068.3941  -846.3279  -729.2226 H6            1 RES     
   32157 H6        1069.8930  -846.2667  -731.0744 H6            1 RES     
   32158 H6        1068.2998  -845.5982  -731.5206 H6            1 RES     
   32159 H6        1069.2987  -846.9412  -733.3412 H6            1 RES     
   32160 H6        1067.7231  -847.6011  -732.8129 H6            1 RES     
   32161 H6        1068.8254  -849.4205  -731.5558 H6            1 RES     
   32162 H6        1069.3153  -849.3816  -733.2807 H6            1 RES     
   32163 H6        1070.9547  -848.2833  -730.8992 H6            1 RES     
   32164 H6        1071.4847  -848.2300  -732.6185 H6            1 RES     
   32165 H6        1072.5191  -850.0643  -731.2699 H6            1 RES     
   32166 H6        1070.8895  -850.7543  -730.9357 H6            1 RES     
   32167 H6        1070.6086  -851.1816  -733.4362 H6            1 RES     
   32168 H6        1072.1980  -850.3826  -733.7178 H6            1 RES     
   32169 H6        1073.3475  -852.1681  -732.4043 H6            1 RES     
   32170 H6        1072.4491  -852.7946  -733.8326 H6            1 RES     
   32171 H6        1071.4658  -852.9477  -730.9096 H6            1 RES     
   32172 H6        1070.5598  -853.5172  -732.3714 H6            1 RES     
   32173 H6        1072.1240  -854.2862  -731.9068 H6            1 RES     
   32174 H6        1067.4920  -847.0478  -727.4847 H6            1 RES     
   32175 H6        1066.2593  -847.6460  -726.5562 H6            1 RES     
   32176 H6        1066.6590  -845.0413  -727.0443 H6            1 RES     
   32177 H6        1065.6429  -845.2978  -728.4961 H6            1 RES     
   32178 H6        1064.9733  -845.8617  -725.4822 H6            1 RES     
   32179 H6        1063.8467  -846.1363  -726.8288 H6            1 RES     
   32180 H6        1063.7184  -843.8174  -727.4334 H6            1 RES     
   32181 H6        1063.1475  -844.2855  -725.7872 H6            1 RES     
   32182 H6        1065.0967  -843.4318  -724.7020 H6            1 RES     
   32183 H6        1065.7622  -842.8116  -726.2676 H6            1 RES     
   32184 H6        1063.7060  -841.4589  -726.6401 H6            1 RES     
   32185 H6        1062.9368  -842.1050  -725.1510 H6            1 RES     
   32186 H6        1063.7798  -839.8156  -724.8713 H6            1 RES     
   32187 H6        1065.4691  -840.3579  -725.1976 H6            1 RES     
   32188 H6        1065.3339  -841.8385  -723.1357 H6            1 RES     
   32189 H6        1064.9594  -840.1258  -722.7431 H6            1 RES     
   32190 H6        1063.6178  -841.3190  -722.8957 H6            1 RES     
   32191 C0        1062.2918  -861.8329  -729.5869 C0            1 RES     
   32192 C1        1061.7224  -860.4081  -729.7644 C1            1 RES     
   32193 C1        1060.6877  -860.3704  -730.6437 C1            1 RES     
   32194 S2        1060.1071  -858.8264  -730.9291 S2            1 RES     
   32195 C1        1061.2672  -858.1283  -729.9006 C1            1 RES     
   32196 C1        1062.0924  -859.1167  -729.3531 C1            1 RES     
   32197 C1        1060.4760  -861.6698  -731.1532 C1            1 RES     
   32198 C1        1061.4186  -862.5089  -730.6451 C1            1 RES     
   32199 C1        1061.3600  -863.7756  -731.2136 C1            1 RES     
   32200 C1        1060.3078  -863.8531  -732.1416 C1            1 RES     
   32201 S2        1059.4731  -862.3803  -732.2739 S2            1 RES     
   32202 H3        1062.9351  -858.8674  -728.7367 H3            1 RES     
   32203 H3        1062.0370  -864.5875  -730.9761 H3            1 RES     
   32204 N4        1058.5211  -866.7472  -733.7169 N4            1 RES     
   32205 C1        1058.8083  -865.7152  -732.8705 C1            1 RES     
   32206 C1        1060.0034  -864.9878  -733.0061 C1            1 RES     
   32207 C1        1060.8723  -865.3362  -734.0417 C1            1 RES     
   32208 N4        1062.0284  -864.6800  -734.3179 N4            1 RES     
   32209 S2        1062.5769  -865.4834  -735.6542 S2            1 RES     
   32210 N4        1061.4253  -866.6418  -735.9191 N4            1 RES     
   32211 C1        1060.5419  -866.3992  -734.9194 C1            1 RES     
   32212 C1        1059.3585  -867.1079  -734.7295 C1            1 RES     
   32213 H5        1058.1064  -865.4637  -732.0801 H5            1 RES     
   32214 C0        1062.0903  -862.5834  -728.2235 C0            1 RES     
   32215 C0        1060.7920  -863.2076  -727.5856 C0            1 RES     
   32216 C0        1061.2308  -863.6951  -726.1601 C0            1 RES     
   32217 C0        1060.1727  -864.4221  -725.3209 C0            1 RES     
   32218 C0        1060.7004  -864.8098  -723.9194 C0            1 RES     
   32219 C0        1061.8865  -865.7991  -723.8972 C0            1 RES     
   32220 C0        1061.6455  -867.1167  -724.6547 C0            1 RES     
   32221 C0        1060.4190  -867.8919  -724.1413 C0            1 RES     
   32222 C0        1060.1479  -869.1779  -724.9352 C0            1 RES     
   32223 C0        1061.2404  -870.2448  -724.7511 C0            1 RES     
   32224 C0        1060.9028  -871.5678  -725.4569 C0            1 RES     
   32225 C0        1060.8570  -871.4433  -726.9803 C0            1 RES     
   32226 C0        1059.4737  -862.3680  -727.5388 C0            1 RES     
   32227 C0        1059.4270  -861.0694  -726.6762 C0            1 RES     
   32228 C0        1059.0955  -859.8820  -727.5851 C0            1 RES     
   32229 C0        1059.3145  -858.4754  -727.0352 C0            1 RES     
   32230 C0        1058.2335  -857.9338  -726.1112 C0            1 RES     
   32231 C0        1058.6299  -856.4956  -725.7166 C0            1 RES     
   32232 C0        1057.5519  -855.7360  -724.9402 C0            1 RES     
   32233 C0        1056.3286  -855.4202  -725.8035 C0            1 RES     
   32234 H6        1062.4604  -861.9360  -727.4701 H6            1 RES     
   32235 H6        1062.7838  -863.4523  -728.2855 H6            1 RES     
   32236 H6        1060.5342  -864.0995  -728.1993 H6            1 RES     
   32237 H6        1061.5776  -862.8222  -725.5649 H6            1 RES     
   32238 H6        1062.0970  -864.3790  -726.2881 H6            1 RES     
   32239 H6        1059.8059  -865.3176  -725.8625 H6            1 RES     
   32240 H6        1059.3136  -863.7428  -725.1486 H6            1 RES     
   32241 H6        1059.8589  -865.2464  -723.3427 H6            1 RES     
   32242 H6        1061.0100  -863.8895  -723.3763 H6            1 RES     
   32243 H6        1062.1222  -866.0307  -722.8345 H6            1 RES     
   32244 H6        1062.7880  -865.3126  -724.3271 H6            1 RES     
   32245 H6        1061.5184  -866.8993  -725.7362 H6            1 RES     
   32246 H6        1062.5595  -867.7354  -724.5390 H6            1 RES     
   32247 H6        1059.5176  -867.2575  -724.2637 H6            1 RES     
   32248 H6        1060.5362  -868.1281  -723.0610 H6            1 RES     
   32249 H6        1059.1866  -869.6007  -724.5703 H6            1 RES     
   32250 H6        1060.0272  -868.9131  -726.0066 H6            1 RES     
   32251 H6        1062.2195  -869.8800  -725.1248 H6            1 RES     
   32252 H6        1061.3365  -870.4565  -723.6639 H6            1 RES     
   32253 H6        1059.9297  -871.9561  -725.0848 H6            1 RES     
   32254 H6        1061.6910  -872.3077  -725.1990 H6            1 RES     
   32255 H6        1060.0507  -870.7555  -727.3058 H6            1 RES     
   32256 H6        1061.8324  -871.0757  -727.3639 H6            1 RES     
   32257 H6        1060.6537  -872.4402  -727.4243 H6            1 RES     
   32258 H6        1058.6665  -863.0315  -727.1611 H6            1 RES     
   32259 H6        1059.1512  -862.1696  -728.5834 H6            1 RES     
   32260 H6        1058.6360  -861.1414  -725.8964 H6            1 RES     
   32261 H6        1060.4003  -860.9144  -726.1678 H6            1 RES     
   32262 H6        1058.0979  -859.9820  -728.0623 H6            1 RES     
   32263 H6        1059.8295  -859.9538  -728.3593 H6            1 RES     
   32264 H6        1060.2978  -858.4262  -726.5610 H6            1 RES     
   32265 H6        1059.3416  -857.7953  -727.9168 H6            1 RES     
   32266 H6        1057.2809  -857.9393  -726.6821 H6            1 RES     
   32267 H6        1058.1205  -858.5649  -725.2045 H6            1 RES     
   32268 H6        1059.5500  -856.5522  -725.0918 H6            1 RES     
   32269 H6        1058.8765  -855.8970  -726.6230 H6            1 RES     
   32270 H6        1057.9889  -854.7654  -724.6174 H6            1 RES     
   32271 H6        1057.2551  -856.3062  -724.0349 H6            1 RES     
   32272 H6        1055.8135  -856.3443  -726.1322 H6            1 RES     
   32273 H6        1055.6095  -854.8117  -725.2184 H6            1 RES     
   32274 H6        1056.6339  -854.8360  -726.7003 H6            1 RES     
   32275 C0        1063.8161  -861.7198  -729.9860 C0            1 RES     
   32276 C0        1065.0526  -861.8814  -728.9904 C0            1 RES     
   32277 C0        1066.2663  -861.1648  -729.6727 C0            1 RES     
   32278 C0        1067.6412  -861.4176  -729.0217 C0            1 RES     
   32279 C0        1068.8007  -860.6756  -729.7098 C0            1 RES     
   32280 C0        1069.0326  -861.0248  -731.1908 C0            1 RES     
   32281 C0        1069.2085  -862.5230  -731.4892 C0            1 RES     
   32282 C0        1070.3672  -863.1705  -730.7106 C0            1 RES     
   32283 C0        1070.5263  -864.6687  -731.0162 C0            1 RES     
   32284 C0        1070.9684  -864.9407  -732.4653 C0            1 RES     
   32285 C0        1071.2491  -866.4266  -732.7383 C0            1 RES     
   32286 C0        1070.0020  -867.3049  -732.6365 C0            1 RES     
   32287 C0        1065.0182  -861.5904  -727.4312 C0            1 RES     
   32288 C0        1064.8439  -860.1524  -726.8658 C0            1 RES     
   32289 C0        1063.4427  -859.9220  -726.2718 C0            1 RES     
   32290 C0        1063.1459  -858.5264  -725.7483 C0            1 RES     
   32291 C0        1063.8180  -858.1207  -724.4441 C0            1 RES     
   32292 C0        1063.2295  -856.7538  -724.0388 C0            1 RES     
   32293 C0        1063.6761  -856.2530  -722.6641 C0            1 RES     
   32294 C0        1063.1235  -857.1116  -721.5255 C0            1 RES     
   32295 H6        1063.9486  -860.7783  -730.5683 H6            1 RES     
   32296 H6        1064.0057  -862.4767  -730.7804 H6            1 RES     
   32297 H6        1065.2624  -862.9758  -729.0083 H6            1 RES     
   32298 H6        1066.0789  -860.0694  -729.6889 H6            1 RES     
   32299 H6        1066.3205  -861.5177  -730.7251 H6            1 RES     
   32300 H6        1067.8425  -862.5092  -729.0008 H6            1 RES     
   32301 H6        1067.6499  -861.0388  -727.9814 H6            1 RES     
   32302 H6        1069.7281  -860.8947  -729.1388 H6            1 RES     
   32303 H6        1068.6291  -859.5792  -729.6347 H6            1 RES     
   32304 H6        1069.9375  -860.4759  -731.5320 H6            1 RES     
   32305 H6        1068.1775  -860.6514  -731.7936 H6            1 RES     
   32306 H6        1068.2652  -863.0615  -731.2560 H6            1 RES     
   32307 H6        1069.3880  -862.6111  -732.5801 H6            1 RES     
   32308 H6        1070.1604  -863.0863  -729.6233 H6            1 RES     
   32309 H6        1071.3199  -862.6400  -730.9256 H6            1 RES     
   32310 H6        1071.3078  -865.0698  -730.3346 H6            1 RES     
   32311 H6        1069.5691  -865.1844  -730.7895 H6            1 RES     
   32312 H6        1070.2047  -864.5860  -733.1878 H6            1 RES     
   32313 H6        1071.9112  -864.3807  -732.6493 H6            1 RES     
   32314 H6        1072.0264  -866.7984  -732.0359 H6            1 RES     
   32315 H6        1071.6460  -866.5166  -733.7725 H6            1 RES     
   32316 H6        1069.5873  -867.2993  -731.6083 H6            1 RES     
   32317 H6        1069.2259  -866.9539  -733.3496 H6            1 RES     
   32318 H6        1070.2696  -868.3519  -732.8912 H6            1 RES     
   32319 H6        1066.0031  -861.9310  -727.0625 H6            1 RES     
   32320 H6        1064.4058  -862.3172  -726.8651 H6            1 RES     
   32321 H6        1065.5312  -860.0448  -725.9979 H6            1 RES     
   32322 H6        1065.1369  -859.3921  -727.6179 H6            1 RES     
   32323 H6        1063.2317  -860.6760  -725.4798 H6            1 RES     
   32324 H6        1062.6935  -860.0348  -727.0474 H6            1 RES     
   32325 H6        1063.3300  -857.7757  -726.5473 H6            1 RES     
   32326 H6        1062.0706  -858.5401  -725.5057 H6            1 RES     
   32327 H6        1063.5740  -858.8919  -723.6831 H6            1 RES     
   32328 H6        1064.9198  -858.0587  -724.5623 H6            1 RES     
   32329 H6        1063.5301  -856.0080  -724.8073 H6            1 RES     
   32330 H6        1062.1160  -856.7992  -724.0322 H6            1 RES     
   32331 H6        1063.2661  -855.2271  -722.5369 H6            1 RES     
   32332 H6        1064.7820  -856.2016  -722.6172 H6            1 RES     
   32333 H6        1063.5242  -858.1440  -721.5650 H6            1 RES     
   32334 H6        1063.4153  -856.6631  -720.5538 H6            1 RES     
   32335 H6        1062.0132  -857.1495  -721.5756 H6            1 RES     
   32336 C0        1058.9099  -872.0711  -736.9075 C0            1 RES     
   32337 C1        1058.7870  -870.5703  -736.5636 C1            1 RES     
   32338 C1        1058.2166  -869.8547  -737.5675 C1            1 RES     
   32339 S2        1058.1524  -868.2095  -737.2645 S2            1 RES     
   32340 C1        1058.9391  -868.3870  -735.7677 C1            1 RES     
   32341 C1        1059.2420  -869.7325  -735.5318 C1            1 RES     
   32342 C1        1057.9396  -870.7234  -738.6451 C1            1 RES     
   32343 C1        1058.3959  -871.9693  -738.3444 C1            1 RES     
   32344 C1        1058.2860  -872.8455  -739.4174 C1            1 RES     
   32345 C1        1057.6937  -872.2060  -740.5195 C1            1 RES     
   32346 S2        1057.3267  -870.5822  -740.1849 S2            1 RES     
   32347 H3        1059.8076  -870.0390  -734.6724 H3            1 RES     
   32348 H3        1058.6172  -873.8770  -739.4047 H3            1 RES     
   32349 N4        1056.0755  -873.5069  -743.6403 N4            1 RES     
   32350 C1        1056.2284  -873.0133  -742.3766 C1            1 RES     
   32351 C1        1057.5097  -872.7758  -741.8496 C1            1 RES     
   32352 C1        1058.6145  -873.0371  -742.6619 C1            1 RES     
   32353 N4        1059.9004  -872.7982  -742.2972 N4            1 RES     
   32354 S2        1060.7363  -873.2312  -743.6557 S2            1 RES     
   32355 N4        1059.5556  -873.7184  -744.7077 N4            1 RES     
   32356 C1        1058.4285  -873.5308  -743.9776 C1            1 RES     
   32357 C1        1057.1405  -873.7751  -744.4469 C1            1 RES     
   32358 H5        1055.3474  -872.8122  -741.7733 H5            1 RES     
   32359 C0        1058.0288  -873.1170  -736.1379 C0            1 RES     
   32360 C0        1056.4812  -873.4011  -736.2172 C0            1 RES     
   32361 C0        1056.2056  -874.4759  -735.1076 C0            1 RES     
   32362 C0        1054.7706  -875.0065  -734.9988 C0            1 RES     
   32363 C0        1054.6059  -876.0193  -733.8412 C0            1 RES     
   32364 C0        1055.4368  -877.3161  -733.9586 C0            1 RES     
   32365 C0        1055.2270  -878.1041  -735.2637 C0            1 RES     
   32366 C0        1053.7589  -878.5019  -735.4985 C0            1 RES     
   32367 C0        1053.5435  -879.2390  -736.8281 C0            1 RES     
   32368 C0        1054.2102  -880.6245  -736.8673 C0            1 RES     
   32369 C0        1053.8926  -881.3997  -738.1560 C0            1 RES     
   32370 C0        1054.4771  -880.7486  -739.4101 C0            1 RES     
   32371 C0        1055.4720  -872.2091  -736.1433 C0            1 RES     
   32372 C0        1055.3796  -871.3684  -734.8328 C0            1 RES     
   32373 C0        1055.7033  -869.9069  -735.1573 C0            1 RES     
   32374 C0        1055.9947  -868.9622  -733.9947 C0            1 RES     
   32375 C0        1054.7871  -868.4178  -733.2458 C0            1 RES     
   32376 C0        1055.3048  -867.4571  -732.1548 C0            1 RES     
   32377 C0        1054.2060  -866.6744  -731.4321 C0            1 RES     
   32378 C0        1053.5227  -865.6550  -732.3460 C0            1 RES     
   32379 H6        1058.2070  -872.9539  -735.1057 H6            1 RES     
   32380 H6        1058.4797  -874.1003  -736.4019 H6            1 RES     
   32381 H6        1056.2942  -873.8650  -737.2114 H6            1 RES     
   32382 H6        1056.4750  -874.0547  -734.1144 H6            1 RES     
   32383 H6        1056.8776  -875.3398  -735.2988 H6            1 RES     
   32384 H6        1054.4573  -875.4583  -735.9618 H6            1 RES     
   32385 H6        1054.0866  -874.1644  -734.7700 H6            1 RES     
   32386 H6        1053.5317  -876.2875  -733.7680 H6            1 RES     
   32387 H6        1054.8731  -875.5254  -732.8807 H6            1 RES     
   32388 H6        1055.1790  -877.9699  -733.0958 H6            1 RES     
   32389 H6        1056.5181  -877.0774  -733.8685 H6            1 RES     
   32390 H6        1055.5861  -877.4957  -736.1204 H6            1 RES     
   32391 H6        1055.8606  -879.0134  -735.2052 H6            1 RES     
   32392 H6        1053.1427  -877.5813  -735.5523 H6            1 RES     
   32393 H6        1053.3874  -879.1224  -734.6538 H6            1 RES     
   32394 H6        1052.4484  -879.3782  -736.9606 H6            1 RES     
   32395 H6        1053.9148  -878.5955  -737.6532 H6            1 RES     
   32396 H6        1055.3117  -880.5389  -736.7639 H6            1 RES     
   32397 H6        1053.8225  -881.2186  -736.0112 H6            1 RES     
   32398 H6        1052.7918  -881.5073  -738.2698 H6            1 RES     
   32399 H6        1054.3312  -882.4168  -738.0641 H6            1 RES     
   32400 H6        1054.0374  -879.7466  -739.5880 H6            1 RES     
   32401 H6        1055.5798  -880.6558  -739.3149 H6            1 RES     
   32402 H6        1054.2489  -881.3818  -740.2930 H6            1 RES     
   32403 H6        1054.4562  -872.6171  -736.3333 H6            1 RES     
   32404 H6        1055.6379  -871.5583  -737.0284 H6            1 RES     
   32405 H6        1054.3514  -871.4104  -734.4082 H6            1 RES     
   32406 H6        1056.0833  -871.7668  -734.0740 H6            1 RES     
   32407 H6        1054.9778  -869.4629  -735.8710 H6            1 RES     
   32408 H6        1056.6464  -869.9703  -735.6571 H6            1 RES     
   32409 H6        1056.6973  -869.4439  -733.3103 H6            1 RES     
   32410 H6        1056.5155  -868.0798  -734.4314 H6            1 RES     
   32411 H6        1054.1595  -867.8762  -733.9848 H6            1 RES     
   32412 H6        1054.1906  -869.2351  -732.7880 H6            1 RES     
   32413 H6        1055.8685  -868.0591  -731.4064 H6            1 RES     
   32414 H6        1056.0132  -866.7170  -732.5918 H6            1 RES     
   32415 H6        1054.6845  -866.1077  -730.6032 H6            1 RES     
   32416 H6        1053.4595  -867.3713  -730.9964 H6            1 RES     
   32417 H6        1052.9871  -866.1509  -733.1794 H6            1 RES     
   32418 H6        1052.7860  -865.0682  -731.7607 H6            1 RES     
   32419 H6        1054.2766  -864.9521  -732.7660 H6            1 RES     
   32420 C0        1060.4523  -872.3938  -736.7966 C0            1 RES     
   32421 C0        1061.1297  -873.3307  -735.6968 C0            1 RES     
   32422 C0        1062.6398  -872.9204  -735.6358 C0            1 RES     
   32423 C0        1063.5558  -873.8675  -734.8345 C0            1 RES     
   32424 C0        1065.0252  -873.4134  -734.7811 C0            1 RES     
   32425 C0        1065.7360  -873.2880  -736.1405 C0            1 RES     
   32426 C0        1065.6782  -874.5435  -737.0266 C0            1 RES     
   32427 C0        1066.2636  -875.7966  -736.3519 C0            1 RES     
   32428 C0        1066.1936  -877.0434  -737.2485 C0            1 RES     
   32429 C0        1067.0966  -876.9393  -738.4906 C0            1 RES     
   32430 C0        1067.1251  -878.2313  -739.3219 C0            1 RES     
   32431 C0        1065.7772  -878.5683  -739.9597 C0            1 RES     
   32432 C0        1060.5517  -873.6058  -734.2452 C0            1 RES     
   32433 C0        1060.4929  -872.4952  -733.1584 C0            1 RES     
   32434 C0        1059.0600  -871.9882  -732.9155 C0            1 RES     
   32435 C0        1058.8988  -870.8550  -731.9157 C0            1 RES     
   32436 C0        1059.0769  -871.2017  -730.4443 C0            1 RES     
   32437 C0        1058.6954  -869.9454  -729.6348 C0            1 RES     
   32438 C0        1058.6657  -870.1517  -728.1193 C0            1 RES     
   32439 C0        1057.5353  -871.0847  -727.6822 C0            1 RES     
   32440 H6        1061.0078  -871.4278  -736.8323 H6            1 RES     
   32441 H6        1060.7656  -872.8425  -737.7665 H6            1 RES     
   32442 H6        1061.0816  -874.3468  -736.1521 H6            1 RES     
   32443 H6        1062.7215  -871.8999  -735.2031 H6            1 RES     
   32444 H6        1063.0229  -872.8812  -736.6782 H6            1 RES     
   32445 H6        1063.4853  -874.8915  -735.2577 H6            1 RES     
   32446 H6        1063.2392  -873.9032  -733.7741 H6            1 RES     
   32447 H6        1065.5806  -874.1400  -734.1502 H6            1 RES     
   32448 H6        1065.0854  -872.4295  -734.2661 H6            1 RES     
   32449 H6        1066.7993  -873.0274  -735.9456 H6            1 RES     
   32450 H6        1065.2918  -872.4437  -736.7098 H6            1 RES     
   32451 H6        1064.6252  -874.7437  -737.3190 H6            1 RES     
   32452 H6        1066.2469  -874.3081  -737.9492 H6            1 RES     
   32453 H6        1065.6710  -876.0240  -735.4413 H6            1 RES     
   32454 H6        1067.3160  -875.6130  -736.0452 H6            1 RES     
   32455 H6        1066.5350  -877.9118  -736.6439 H6            1 RES     
   32456 H6        1065.1358  -877.2166  -737.5396 H6            1 RES     
   32457 H6        1066.7769  -876.1033  -739.1463 H6            1 RES     
   32458 H6        1068.1346  -876.7373  -738.1468 H6            1 RES     
   32459 H6        1067.4610  -879.0801  -738.6876 H6            1 RES     
   32460 H6        1067.8653  -878.0969  -740.1400 H6            1 RES     
   32461 H6        1065.0049  -878.7671  -739.1896 H6            1 RES     
   32462 H6        1065.4420  -877.7342  -740.6123 H6            1 RES     
   32463 H6        1065.8841  -879.4828  -740.5803 H6            1 RES     
   32464 H6        1061.2108  -874.3884  -733.8266 H6            1 RES     
   32465 H6        1059.6219  -874.2050  -734.2522 H6            1 RES     
   32466 H6        1060.7898  -872.9542  -732.1897 H6            1 RES     
   32467 H6        1061.2180  -871.6858  -733.3786 H6            1 RES     
   32468 H6        1058.3938  -872.8361  -732.6370 H6            1 RES     
   32469 H6        1058.6704  -871.5431  -733.8242 H6            1 RES     
   32470 H6        1059.5429  -869.9976  -732.2088 H6            1 RES     
   32471 H6        1057.8406  -870.5567  -731.9972 H6            1 RES     
   32472 H6        1058.3897  -872.0416  -730.2085 H6            1 RES     
   32473 H6        1060.1207  -871.5108  -730.2279 H6            1 RES     
   32474 H6        1059.4305  -869.1455  -729.8736 H6            1 RES     
   32475 H6        1057.6887  -869.5789  -729.9418 H6            1 RES     
   32476 H6        1058.4770  -869.1592  -727.6543 H6            1 RES     
   32477 H6        1059.6459  -870.5287  -727.7660 H6            1 RES     
   32478 H6        1057.6798  -872.1096  -728.0779 H6            1 RES     
   32479 H6        1057.5139  -871.1400  -726.5745 H6            1 RES     
   32480 H6        1056.5554  -870.6932  -728.0335 H6            1 RES     
   32481 C0        1056.4950  -877.1452  -748.6664 C0            1 RES     
   32482 C1        1056.5828  -875.9226  -747.7265 C1            1 RES     
   32483 C1        1056.6260  -874.7483  -748.4081 C1            1 RES     
   32484 S2        1056.8144  -873.4084  -747.4224 S2            1 RES     
   32485 C1        1056.8900  -874.3675  -746.0205 C1            1 RES     
   32486 C1        1056.7697  -875.7223  -746.3486 C1            1 RES     
   32487 C1        1056.6091  -875.0247  -749.7923 C1            1 RES     
   32488 C1        1056.6224  -876.3721  -749.9799 C1            1 RES     
   32489 C1        1056.7513  -876.7177  -751.3198 C1            1 RES     
   32490 C1        1056.7966  -875.5673  -752.1252 C1            1 RES     
   32491 S2        1056.6974  -874.1458  -751.2017 S2            1 RES     
   32492 H3        1056.8696  -876.4914  -745.6065 H3            1 RES     
   32493 H3        1056.8134  -877.7346  -751.6886 H3            1 RES     
   32494 N4        1056.2883  -875.0192  -755.7983 N4            1 RES     
   32495 C1        1056.0383  -875.0858  -754.4577 C1            1 RES     
   32496 C1        1057.0280  -875.5323  -753.5649 C1            1 RES     
   32497 C1        1058.2752  -875.8819  -754.0857 C1            1 RES     
   32498 N4        1059.3329  -876.2727  -753.3294 N4            1 RES     
   32499 S2        1060.5163  -876.4832  -754.4639 S2            1 RES     
   32500 N4        1059.7670  -876.1078  -755.8908 N4            1 RES     
   32501 C1        1058.5159  -875.7853  -755.4793 C1            1 RES     
   32502 C1        1057.4961  -875.3622  -756.3277 C1            1 RES     
   32503 H5        1055.0596  -874.7979  -754.0836 H5            1 RES     
   32504 C0        1055.1746  -877.9920  -748.7148 C0            1 RES     
   32505 C0        1053.7613  -877.6431  -749.3169 C0            1 RES     
   32506 C0        1052.8417  -878.8542  -748.9297 C0            1 RES     
   32507 C0        1051.4005  -878.8244  -749.4534 C0            1 RES     
   32508 C0        1050.5748  -880.0392  -748.9682 C0            1 RES     
   32509 C0        1051.0754  -881.4233  -749.4370 C0            1 RES     
   32510 C0        1051.2255  -881.5759  -750.9609 C0            1 RES     
   32511 C0        1049.9190  -881.3005  -751.7262 C0            1 RES     
   32512 C0        1050.0851  -881.3986  -753.2495 C0            1 RES     
   32513 C0        1050.3886  -882.8262  -753.7348 C0            1 RES     
   32514 C0        1050.4390  -882.9339  -755.2672 C0            1 RES     
   32515 C0        1051.5971  -882.1520  -755.8883 C0            1 RES     
   32516 C0        1053.0954  -876.2691  -748.9794 C0            1 RES     
   32517 C0        1052.6850  -875.9622  -747.5063 C0            1 RES     
   32518 C0        1053.4251  -874.7061  -747.0367 C0            1 RES     
   32519 C0        1053.4383  -874.3987  -745.5420 C0            1 RES     
   32520 C0        1052.1871  -873.7450  -744.9742 C0            1 RES     
   32521 C0        1052.4340  -873.4820  -743.4738 C0            1 RES     
   32522 C0        1051.3429  -872.6531  -742.7920 C0            1 RES     
   32523 C0        1051.3174  -871.2062  -743.2890 C0            1 RES     
   32524 H6        1054.9649  -878.2733  -747.7144 H6            1 RES     
   32525 H6        1055.4629  -878.9153  -749.2663 H6            1 RES     
   32526 H6        1053.8816  -877.6315  -750.4232 H6            1 RES     
   32527 H6        1052.7859  -878.9325  -747.8219 H6            1 RES     
   32528 H6        1053.3253  -879.7805  -749.3073 H6            1 RES     
   32529 H6        1051.3985  -878.7670  -750.5609 H6            1 RES     
   32530 H6        1050.8866  -877.9256  -749.0569 H6            1 RES     
   32531 H6        1049.5277  -879.9027  -749.3090 H6            1 RES     
   32532 H6        1050.5459  -880.0426  -747.8560 H6            1 RES     
   32533 H6        1050.3618  -882.1920  -749.0651 H6            1 RES     
   32534 H6        1052.0582  -881.6444  -748.9685 H6            1 RES     
   32535 H6        1052.0170  -880.8857  -751.3217 H6            1 RES     
   32536 H6        1051.5667  -882.6137  -751.1562 H6            1 RES     
   32537 H6        1049.5939  -880.2609  -751.5173 H6            1 RES     
   32538 H6        1049.1183  -881.9925  -751.3845 H6            1 RES     
   32539 H6        1049.1285  -881.0719  -753.7127 H6            1 RES     
   32540 H6        1050.8828  -880.6935  -753.5642 H6            1 RES     
   32541 H6        1051.3503  -883.1915  -753.3189 H6            1 RES     
   32542 H6        1049.5749  -883.4933  -753.3756 H6            1 RES     
   32543 H6        1049.4771  -882.5842  -755.7017 H6            1 RES     
   32544 H6        1050.5691  -884.0049  -755.5340 H6            1 RES     
   32545 H6        1051.4964  -881.0638  -755.7019 H6            1 RES     
   32546 H6        1052.5648  -882.5087  -755.4758 H6            1 RES     
   32547 H6        1051.5996  -882.3101  -756.9871 H6            1 RES     
   32548 H6        1052.1727  -876.1837  -749.5924 H6            1 RES     
   32549 H6        1053.7350  -875.4617  -749.3959 H6            1 RES     
   32550 H6        1051.5912  -875.7686  -747.4331 H6            1 RES     
   32551 H6        1052.9272  -876.8265  -746.8552 H6            1 RES     
   32552 H6        1053.1558  -873.8099  -747.6346 H6            1 RES     
   32553 H6        1054.4491  -874.9335  -747.2440 H6            1 RES     
   32554 H6        1053.6903  -875.3089  -744.9923 H6            1 RES     
   32555 H6        1054.2701  -873.6763  -745.3783 H6            1 RES     
   32556 H6        1052.0367  -872.7916  -745.5236 H6            1 RES     
   32557 H6        1051.2939  -874.3907  -745.1102 H6            1 RES     
   32558 H6        1052.5102  -874.4673  -742.9604 H6            1 RES     
   32559 H6        1053.4018  -872.9510  -743.3256 H6            1 RES     
   32560 H6        1051.5705  -872.6255  -741.7036 H6            1 RES     
   32561 H6        1050.3512  -873.1323  -742.9317 H6            1 RES     
   32562 H6        1051.0564  -871.1502  -744.3642 H6            1 RES     
   32563 H6        1050.5601  -870.6318  -742.7179 H6            1 RES     
   32564 H6        1052.3109  -870.7300  -743.1312 H6            1 RES     
   32565 C0        1057.7569  -878.0274  -748.3132 C0            1 RES     
   32566 C0        1057.7225  -879.4652  -747.6220 C0            1 RES     
   32567 C0        1059.1376  -879.6851  -746.9881 C0            1 RES     
   32568 C0        1059.4310  -881.1159  -746.4934 C0            1 RES     
   32569 C0        1060.8225  -881.2804  -745.8569 C0            1 RES     
   32570 C0        1062.0182  -880.9624  -746.7724 C0            1 RES     
   32571 C0        1062.0361  -881.7194  -748.1108 C0            1 RES     
   32572 C0        1062.0164  -883.2496  -747.9491 C0            1 RES     
   32573 C0        1062.0295  -883.9911  -749.2957 C0            1 RES     
   32574 C0        1063.3460  -883.8025  -750.0704 C0            1 RES     
   32575 C0        1063.4114  -884.6416  -751.3560 C0            1 RES     
   32576 C0        1062.3837  -884.2184  -752.4057 C0            1 RES     
   32577 C0        1056.5760  -879.9929  -746.6608 C0            1 RES     
   32578 C0        1056.3431  -879.3878  -745.2474 C0            1 RES     
   32579 C0        1055.0809  -878.5089  -745.1870 C0            1 RES     
   32580 C0        1054.7958  -877.8165  -743.8644 C0            1 RES     
   32581 C0        1054.3006  -878.6900  -742.7203 C0            1 RES     
   32582 C0        1053.9208  -877.7449  -741.5621 C0            1 RES     
   32583 C0        1053.2539  -878.4363  -740.3715 C0            1 RES     
   32584 C0        1051.8666  -878.9792  -740.7176 C0            1 RES     
   32585 H6        1058.4808  -877.3840  -747.7609 H6            1 RES     
   32586 H6        1058.3178  -878.1944  -749.2606 H6            1 RES     
   32587 H6        1057.6331  -880.1679  -748.4824 H6            1 RES     
   32588 H6        1059.2668  -878.9830  -746.1363 H6            1 RES     
   32589 H6        1059.8972  -879.4311  -747.7584 H6            1 RES     
   32590 H6        1059.3073  -881.8283  -747.3358 H6            1 RES     
   32591 H6        1058.7244  -881.3973  -745.6887 H6            1 RES     
   32592 H6        1060.9097  -882.3296  -745.5022 H6            1 RES     
   32593 H6        1060.8922  -880.6305  -744.9570 H6            1 RES     
   32594 H6        1062.9487  -881.1943  -746.2094 H6            1 RES     
   32595 H6        1062.0321  -879.8736  -746.9921 H6            1 RES     
   32596 H6        1061.1665  -881.4056  -748.7268 H6            1 RES     
   32597 H6        1062.9580  -881.4055  -748.6415 H6            1 RES     
   32598 H6        1061.0797  -883.5438  -747.4312 H6            1 RES     
   32599 H6        1062.8762  -883.5827  -747.3284 H6            1 RES     
   32600 H6        1061.9046  -885.0753  -749.0837 H6            1 RES     
   32601 H6        1061.1610  -883.6525  -749.8997 H6            1 RES     
   32602 H6        1063.5031  -882.7365  -750.3350 H6            1 RES     
   32603 H6        1064.1825  -884.1271  -749.4137 H6            1 RES     
   32604 H6        1063.2743  -885.7173  -751.1113 H6            1 RES     
   32605 H6        1064.4229  -884.5138  -751.7983 H6            1 RES     
   32606 H6        1061.3480  -884.3734  -752.0419 H6            1 RES     
   32607 H6        1062.5254  -883.1494  -752.6726 H6            1 RES     
   32608 H6        1062.5200  -884.8329  -753.3203 H6            1 RES     
   32609 H6        1056.8268  -881.0552  -746.4851 H6            1 RES     
   32610 H6        1055.6159  -880.1675  -747.1817 H6            1 RES     
   32611 H6        1056.1263  -880.2280  -744.5515 H6            1 RES     
   32612 H6        1057.2562  -878.8781  -744.8787 H6            1 RES     
   32613 H6        1054.1890  -879.0935  -745.5079 H6            1 RES     
   32614 H6        1055.1883  -877.6674  -745.8623 H6            1 RES     
   32615 H6        1055.6758  -877.2105  -743.5573 H6            1 RES     
   32616 H6        1053.9492  -877.1430  -744.0765 H6            1 RES     
   32617 H6        1053.4086  -879.2453  -743.0797 H6            1 RES     
   32618 H6        1055.0791  -879.4143  -742.4019 H6            1 RES     
   32619 H6        1054.8479  -877.2408  -741.2109 H6            1 RES     
   32620 H6        1053.2237  -876.9534  -741.9221 H6            1 RES     
   32621 H6        1053.1229  -877.6705  -739.5757 H6            1 RES     
   32622 H6        1053.9068  -879.2432  -739.9838 H6            1 RES     
   32623 H6        1051.9238  -879.7807  -741.4806 H6            1 RES     
   32624 H6        1051.4006  -879.4022  -739.8041 H6            1 RES     
   32625 H6        1051.2163  -878.1606  -741.0970 H6            1 RES     
   32626 C0        1057.8288  -876.5780  -761.6182 C0            1 RES     
   32627 C1        1057.8093  -875.8790  -760.2409 C1            1 RES     
   32628 C1        1058.3755  -874.6448  -760.2792 C1            1 RES     
   32629 S2        1058.4537  -873.8971  -758.7835 S2            1 RES     
   32630 C1        1057.7587  -875.2381  -758.0027 C1            1 RES     
   32631 C1        1057.4799  -876.2509  -758.9269 C1            1 RES     
   32632 C1        1058.8423  -874.3988  -761.5885 C1            1 RES     
   32633 C1        1058.6293  -875.5027  -762.3546 C1            1 RES     
   32634 C1        1059.1934  -875.3852  -763.6191 C1            1 RES     
   32635 C1        1059.8048  -874.1295  -763.7733 C1            1 RES     
   32636 S2        1059.6689  -873.1846  -762.3690 S2            1 RES     
   32637 H3        1057.1075  -877.2085  -758.6160 H3            1 RES     
   32638 H3        1059.1684  -876.1588  -764.3773 H3            1 RES     
   32639 N4        1060.9137  -872.1999  -766.7894 N4            1 RES     
   32640 C1        1060.1498  -872.6293  -765.7424 C1            1 RES     
   32641 C1        1060.5841  -873.6863  -764.9239 C1            1 RES     
   32642 C1        1061.8244  -874.2651  -765.1987 C1            1 RES     
   32643 N4        1062.3852  -875.2517  -764.4534 N4            1 RES     
   32644 S2        1063.8402  -875.4749  -765.2052 S2            1 RES     
   32645 N4        1063.8144  -874.3827  -766.4481 N4            1 RES     
   32646 C1        1062.6075  -873.7880  -766.2797 C1            1 RES     
   32647 C1        1062.1237  -872.7556  -767.0789 C1            1 RES     
   32648 H5        1059.1931  -872.1514  -765.5501 H5            1 RES     
   32649 C0        1056.4815  -876.8091  -762.3889 C0            1 RES     
   32650 C0        1055.5333  -875.7817  -763.1151 C0            1 RES     
   32651 C0        1054.2921  -876.6249  -763.5742 C0            1 RES     
   32652 C0        1053.2176  -875.8901  -764.3853 C0            1 RES     
   32653 C0        1052.0210  -876.8047  -764.7379 C0            1 RES     
   32654 C0        1052.3452  -878.0216  -765.6323 C0            1 RES     
   32655 C0        1053.0433  -877.6816  -766.9609 C0            1 RES     
   32656 C0        1052.2383  -876.7004  -767.8314 C0            1 RES     
   32657 C0        1052.9625  -876.3194  -769.1305 C0            1 RES     
   32658 C0        1053.1076  -877.4959  -770.1104 C0            1 RES     
   32659 C0        1053.7300  -877.0777  -771.4520 C0            1 RES     
   32660 C0        1055.1808  -876.6117  -771.3238 C0            1 RES     
   32661 C0        1055.1109  -874.4675  -762.3805 C0            1 RES     
   32662 C0        1054.2345  -874.5613  -761.0937 C0            1 RES     
   32663 C0        1054.9892  -873.9097  -759.9310 C0            1 RES     
   32664 C0        1054.4827  -874.1659  -758.5145 C0            1 RES     
   32665 C0        1053.2876  -873.3391  -758.0630 C0            1 RES     
   32666 C0        1052.9776  -873.7211  -756.6004 C0            1 RES     
   32667 C0        1051.9197  -872.8412  -755.9305 C0            1 RES     
   32668 C0        1052.4125  -871.4100  -755.7063 C0            1 RES     
   32669 H6        1055.8395  -877.3211  -761.7185 H6            1 RES     
   32670 H6        1056.7507  -877.5216  -763.2011 H6            1 RES     
   32671 H6        1056.0774  -875.4333  -764.0212 H6            1 RES     
   32672 H6        1053.7903  -877.0551  -762.6800 H6            1 RES     
   32673 H6        1054.6667  -877.4717  -764.1883 H6            1 RES     
   32674 H6        1053.6631  -875.4568  -765.3038 H6            1 RES     
   32675 H6        1052.8024  -875.0624  -763.7755 H6            1 RES     
   32676 H6        1051.2502  -876.1854  -765.2413 H6            1 RES     
   32677 H6        1051.5580  -877.1816  -763.7991 H6            1 RES     
   32678 H6        1051.3919  -878.5528  -765.8503 H6            1 RES     
   32679 H6        1052.9897  -878.7347  -765.0752 H6            1 RES     
   32680 H6        1054.0444  -877.2506  -766.7485 H6            1 RES     
   32681 H6        1053.1946  -878.6356  -767.5074 H6            1 RES     
   32682 H6        1052.0964  -875.7556  -767.2682 H6            1 RES     
   32683 H6        1051.2361  -877.1230  -768.0632 H6            1 RES     
   32684 H6        1052.3627  -875.5265  -769.6284 H6            1 RES     
   32685 H6        1053.9544  -875.8937  -768.8705 H6            1 RES     
   32686 H6        1053.7220  -878.3077  -769.6689 H6            1 RES     
   32687 H6        1052.0925  -877.8984  -770.3195 H6            1 RES     
   32688 H6        1053.1193  -876.2729  -771.9165 H6            1 RES     
   32689 H6        1053.7135  -877.9583  -772.1298 H6            1 RES     
   32690 H6        1055.2589  -875.6992  -770.6991 H6            1 RES     
   32691 H6        1055.8038  -877.4170  -770.8798 H6            1 RES     
   32692 H6        1055.5791  -876.3692  -772.3313 H6            1 RES     
   32693 H6        1054.5466  -873.8438  -763.1064 H6            1 RES     
   32694 H6        1056.0242  -873.8604  -762.2024 H6            1 RES     
   32695 H6        1053.2722  -874.0187  -761.2307 H6            1 RES     
   32696 H6        1054.0037  -875.6219  -760.8663 H6            1 RES     
   32697 H6        1055.1820  -872.8303  -760.1058 H6            1 RES     
   32698 H6        1055.9343  -874.4097  -759.9419 H6            1 RES     
   32699 H6        1054.2903  -875.2345  -758.3916 H6            1 RES     
   32700 H6        1055.3210  -873.9031  -757.8299 H6            1 RES     
   32701 H6        1053.5803  -872.2705  -758.1395 H6            1 RES     
   32702 H6        1052.4006  -873.5227  -758.7054 H6            1 RES     
   32703 H6        1052.6259  -874.7777  -756.5885 H6            1 RES     
   32704 H6        1053.9012  -873.6683  -755.9800 H6            1 RES     
   32705 H6        1051.7019  -873.2770  -754.9306 H6            1 RES     
   32706 H6        1050.9830  -872.8435  -756.5266 H6            1 RES     
   32707 H6        1052.6138  -870.8943  -756.6658 H6            1 RES     
   32708 H6        1051.6396  -870.8338  -755.1583 H6            1 RES     
   32709 H6        1053.3430  -871.4172  -755.0956 H6            1 RES     
   32710 C0        1058.6214  -877.9245  -761.3852 C0            1 RES     
   32711 C0        1058.0009  -879.3929  -761.4555 C0            1 RES     
   32712 C0        1058.9667  -880.3205  -760.6435 C0            1 RES     
   32713 C0        1058.7176  -881.8350  -760.7921 C0            1 RES     
   32714 C0        1059.6735  -882.7070  -759.9591 C0            1 RES     
   32715 C0        1061.1707  -882.5539  -760.2818 C0            1 RES     
   32716 C0        1061.5441  -882.7516  -761.7603 C0            1 RES     
   32717 C0        1061.1240  -884.1221  -762.3200 C0            1 RES     
   32718 C0        1061.4998  -884.3019  -763.7998 C0            1 RES     
   32719 C0        1063.0209  -884.3534  -764.0294 C0            1 RES     
   32720 C0        1063.3978  -884.6577  -765.4876 C0            1 RES     
   32721 C0        1062.9860  -883.5527  -766.4605 C0            1 RES     
   32722 C0        1056.4833  -879.7612  -761.1758 C0            1 RES     
   32723 C0        1055.8549  -879.6418  -759.7585 C0            1 RES     
   32724 C0        1054.8991  -878.4410  -759.6404 C0            1 RES     
   32725 C0        1054.2790  -878.1958  -758.2747 C0            1 RES     
   32726 C0        1053.1945  -879.1645  -757.8247 C0            1 RES     
   32727 C0        1052.6104  -878.6094  -756.5096 C0            1 RES     
   32728 C0        1051.3947  -879.3739  -755.9825 C0            1 RES     
   32729 C0        1050.1717  -879.2150  -756.8871 C0            1 RES     
   32730 H6        1059.1934  -877.8249  -760.4335 H6            1 RES     
   32731 H6        1059.4568  -877.9467  -762.1212 H6            1 RES     
   32732 H6        1058.1029  -879.6697  -762.5303 H6            1 RES     
   32733 H6        1058.9033  -880.0559  -759.5659 H6            1 RES     
   32734 H6        1060.0034  -880.1131  -760.9858 H6            1 RES     
   32735 H6        1058.7798  -882.1139  -761.8649 H6            1 RES     
   32736 H6        1057.7087  -882.0975  -760.4190 H6            1 RES     
   32737 H6        1059.3798  -883.7680  -760.1085 H6            1 RES     
   32738 H6        1059.5266  -882.4823  -758.8797 H6            1 RES     
   32739 H6        1061.7291  -883.2897  -759.6627 H6            1 RES     
   32740 H6        1061.5105  -881.5424  -759.9728 H6            1 RES     
   32741 H6        1061.0790  -881.9489  -762.3716 H6            1 RES     
   32742 H6        1062.6449  -882.6346  -761.8288 H6            1 RES     
   32743 H6        1060.0194  -884.2122  -762.2575 H6            1 RES     
   32744 H6        1061.5743  -884.9394  -761.7161 H6            1 RES     
   32745 H6        1061.0649  -885.2660  -764.1424 H6            1 RES     
   32746 H6        1061.0365  -883.4823  -764.3892 H6            1 RES     
   32747 H6        1063.5011  -883.3986  -763.7314 H6            1 RES     
   32748 H6        1063.4380  -885.1673  -763.3970 H6            1 RES     
   32749 H6        1062.9411  -885.6213  -765.8016 H6            1 RES     
   32750 H6        1064.5027  -884.7649  -765.5414 H6            1 RES     
   32751 H6        1061.8843  -883.4329  -766.4922 H6            1 RES     
   32752 H6        1063.4540  -882.5889  -766.1672 H6            1 RES     
   32753 H6        1063.3304  -883.8172  -767.4823 H6            1 RES     
   32754 H6        1056.4029  -880.8314  -761.4409 H6            1 RES     
   32755 H6        1055.7919  -879.3801  -761.9507 H6            1 RES     
   32756 H6        1055.2021  -880.5288  -759.6023 H6            1 RES     
   32757 H6        1056.6382  -879.6635  -758.9740 H6            1 RES     
   32758 H6        1054.0993  -878.5083  -760.4125 H6            1 RES     
   32759 H6        1055.4464  -877.5200  -759.8072 H6            1 RES     
   32760 H6        1055.0784  -878.1008  -757.5080 H6            1 RES     
   32761 H6        1053.7557  -877.2304  -758.3729 H6            1 RES     
   32762 H6        1052.4161  -879.1931  -758.6162 H6            1 RES     
   32763 H6        1053.6041  -880.1855  -757.6768 H6            1 RES     
   32764 H6        1053.4120  -878.6349  -755.7389 H6            1 RES     
   32765 H6        1052.3047  -877.5458  -756.6412 H6            1 RES     
   32766 H6        1051.1351  -878.9396  -754.9921 H6            1 RES     
   32767 H6        1051.6466  -880.4442  -755.8458 H6            1 RES     
   32768 H6        1050.3446  -879.6645  -757.8850 H6            1 RES     
   32769 H6        1049.3036  -879.7255  -756.4221 H6            1 RES     
   32770 H6        1049.9214  -878.1385  -757.0107 H6            1 RES     
   32771 C0        1064.2272  -872.0985  -772.0510 C0            1 RES     
   32772 C1        1063.8243  -871.9638  -770.5660 C1            1 RES     
   32773 C1        1064.6182  -871.0918  -769.8918 C1            1 RES     
   32774 S2        1064.2668  -870.9917  -768.2581 S2            1 RES     
   32775 C1        1063.0429  -872.1654  -768.3816 C1            1 RES     
   32776 C1        1062.9322  -872.6187  -769.7007 C1            1 RES     
   32777 C1        1065.6032  -870.5976  -770.7740 C1            1 RES     
   32778 C1        1065.4690  -871.2083  -771.9822 C1            1 RES     
   32779 C1        1066.4949  -870.8762  -772.8589 C1            1 RES     
   32780 C1        1067.3793  -869.9622  -772.2618 C1            1 RES     
   32781 S2        1066.9163  -869.5816  -770.6731 S2            1 RES     
   32782 H3        1062.2656  -873.4169  -769.9667 H3            1 RES     
   32783 H3        1066.5986  -871.2732  -773.8617 H3            1 RES     
   32784 N4        1069.9803  -867.6587  -773.6686 N4            1 RES     
   32785 C1        1068.7924  -868.1118  -773.1710 C1            1 RES     
   32786 C1        1068.6247  -869.4669  -772.8375 C1            1 RES     
   32787 C1        1069.7115  -870.3263  -773.0083 C1            1 RES     
   32788 N4        1069.7012  -871.6418  -772.6722 N4            1 RES     
   32789 S2        1071.2456  -872.1077  -773.0322 S2            1 RES     
   32790 N4        1071.9522  -870.7250  -773.6043 N4            1 RES     
   32791 C1        1070.9404  -869.8274  -773.5083 C1            1 RES     
   32792 C1        1071.0509  -868.4819  -773.8494 C1            1 RES     
   32793 H5        1067.9687  -867.4150  -773.0418 H5            1 RES     
   32794 C0        1063.2757  -871.5381  -773.1660 C0            1 RES     
   32795 C0        1062.9418  -870.0521  -773.5689 C0            1 RES     
   32796 C0        1061.8271  -870.1670  -774.6673 C0            1 RES     
   32797 C0        1061.3489  -868.8582  -775.3081 C0            1 RES     
   32798 C0        1060.2164  -869.0880  -776.3364 C0            1 RES     
   32799 C0        1060.5871  -869.9487  -777.5642 C0            1 RES     
   32800 C0        1061.8070  -869.4514  -778.3596 C0            1 RES     
   32801 C0        1061.6472  -868.0079  -778.8689 C0            1 RES     
   32802 C0        1062.8879  -867.4948  -779.6138 C0            1 RES     
   32803 C0        1063.1413  -868.2256  -780.9432 C0            1 RES     
   32804 C0        1064.3160  -867.6284  -781.7343 C0            1 RES     
   32805 C0        1065.6641  -867.8017  -781.0336 C0            1 RES     
   32806 C0        1062.5676  -869.0161  -772.4590 C0            1 RES     
   32807 C0        1061.2595  -869.2209  -771.6346 C0            1 RES     
   32808 C0        1061.6214  -869.3366  -770.1508 C0            1 RES     
   32809 C0        1060.5567  -869.8621  -769.1922 C0            1 RES     
   32810 C0        1059.4958  -868.8662  -768.7469 C0            1 RES     
   32811 C0        1058.5606  -869.5883  -767.7544 C0            1 RES     
   32812 C0        1057.5483  -868.6722  -767.0628 C0            1 RES     
   32813 C0        1058.2173  -867.6940  -766.0949 C0            1 RES     
   32814 H6        1062.3261  -871.9769  -772.9947 H6            1 RES     
   32815 H6        1063.6769  -871.9713  -774.1100 H6            1 RES     
   32816 H6        1063.8603  -869.6371  -774.0409 H6            1 RES     
   32817 H6        1060.9329  -870.6639  -774.2314 H6            1 RES     
   32818 H6        1062.2148  -870.8235  -775.4755 H6            1 RES     
   32819 H6        1062.2030  -868.3295  -775.7781 H6            1 RES     
   32820 H6        1060.9223  -868.2019  -774.5228 H6            1 RES     
   32821 H6        1059.8629  -868.0965  -776.6875 H6            1 RES     
   32822 H6        1059.3512  -869.5685  -775.8281 H6            1 RES     
   32823 H6        1059.7039  -869.9830  -778.2404 H6            1 RES     
   32824 H6        1060.7859  -870.9935  -777.2429 H6            1 RES     
   32825 H6        1062.7128  -869.5193  -777.7210 H6            1 RES     
   32826 H6        1061.9451  -870.1420  -779.2173 H6            1 RES     
   32827 H6        1061.5089  -867.3344  -777.9986 H6            1 RES     
   32828 H6        1060.7499  -867.9256  -779.5206 H6            1 RES     
   32829 H6        1062.7235  -866.4181  -779.8369 H6            1 RES     
   32830 H6        1063.7657  -867.5804  -778.9394 H6            1 RES     
   32831 H6        1063.3367  -869.3046  -780.7730 H6            1 RES     
   32832 H6        1062.2279  -868.1290  -781.5698 H6            1 RES     
   32833 H6        1064.1313  -866.5489  -781.9263 H6            1 RES     
   32834 H6        1064.3721  -868.1487  -782.7147 H6            1 RES     
   32835 H6        1065.6908  -867.2581  -780.0677 H6            1 RES     
   32836 H6        1065.8676  -868.8791  -780.8559 H6            1 RES     
   32837 H6        1066.4687  -867.3899  -781.6781 H6            1 RES     
   32838 H6        1062.4869  -868.0195  -772.9436 H6            1 RES     
   32839 H6        1063.4475  -868.8878  -771.7929 H6            1 RES     
   32840 H6        1060.5745  -868.3523  -771.7584 H6            1 RES     
   32841 H6        1060.7293  -870.1312  -771.9811 H6            1 RES     
   32842 H6        1062.1012  -868.4143  -769.7608 H6            1 RES     
   32843 H6        1062.3586  -870.1110  -770.1383 H6            1 RES     
   32844 H6        1060.0999  -870.7572  -769.6214 H6            1 RES     
   32845 H6        1061.0947  -870.1789  -768.2699 H6            1 RES     
   32846 H6        1060.0238  -868.0238  -768.2518 H6            1 RES     
   32847 H6        1058.9154  -868.4776  -769.6102 H6            1 RES     
   32848 H6        1058.0078  -870.3762  -768.3146 H6            1 RES     
   32849 H6        1059.1533  -870.0955  -766.9594 H6            1 RES     
   32850 H6        1056.8649  -869.3146  -766.4649 H6            1 RES     
   32851 H6        1056.9454  -868.1249  -767.8177 H6            1 RES     
   32852 H6        1058.8877  -866.9904  -766.6267 H6            1 RES     
   32853 H6        1057.4400  -867.1025  -765.5699 H6            1 RES     
   32854 H6        1058.8068  -868.2522  -765.3336 H6            1 RES     
   32855 C0        1064.5450  -873.6326  -772.2538 C0            1 RES     
   32856 C0        1063.6934  -874.6495  -773.1408 C0            1 RES     
   32857 C0        1064.0314  -876.0853  -772.6150 C0            1 RES     
   32858 C0        1063.5318  -877.2510  -773.4922 C0            1 RES     
   32859 C0        1063.8651  -878.6425  -772.9258 C0            1 RES     
   32860 C0        1065.3622  -878.9471  -772.7388 C0            1 RES     
   32861 C0        1066.2319  -878.7435  -773.9905 C0            1 RES     
   32862 C0        1065.7728  -879.5801  -775.1978 C0            1 RES     
   32863 C0        1066.6491  -879.3613  -776.4418 C0            1 RES     
   32864 C0        1068.0857  -879.8837  -776.2618 C0            1 RES     
   32865 C0        1068.9270  -879.7805  -777.5435 C0            1 RES     
   32866 C0        1069.1859  -878.3387  -777.9808 C0            1 RES     
   32867 C0        1062.1472  -874.5083  -773.4671 C0            1 RES     
   32868 C0        1061.0566  -874.6650  -772.3699 C0            1 RES     
   32869 C0        1060.4230  -873.3184  -771.9768 C0            1 RES     
   32870 C0        1059.3879  -873.3516  -770.8645 C0            1 RES     
   32871 C0        1058.0286  -873.9467  -771.2036 C0            1 RES     
   32872 C0        1057.1140  -873.7078  -769.9848 C0            1 RES     
   32873 C0        1055.6526  -874.1051  -770.2004 C0            1 RES     
   32874 C0        1054.9510  -873.2071  -771.2204 C0            1 RES     
   32875 H6        1064.7043  -874.0853  -771.2474 H6            1 RES     
   32876 H6        1065.5747  -873.7034  -772.6719 H6            1 RES     
   32877 H6        1064.1448  -874.5544  -774.1553 H6            1 RES     
   32878 H6        1063.6107  -876.2062  -771.5934 H6            1 RES     
   32879 H6        1065.1372  -876.1676  -772.5409 H6            1 RES     
   32880 H6        1063.9465  -877.1438  -774.5164 H6            1 RES     
   32881 H6        1062.4266  -877.2371  -773.5576 H6            1 RES     
   32882 H6        1063.4265  -879.3998  -773.6102 H6            1 RES     
   32883 H6        1063.3603  -878.7678  -771.9427 H6            1 RES     
   32884 H6        1065.4548  -880.0014  -772.3975 H6            1 RES     
   32885 H6        1065.7685  -878.3047  -771.9287 H6            1 RES     
   32886 H6        1066.2344  -877.6684  -774.2704 H6            1 RES     
   32887 H6        1067.2674  -879.0221  -773.7072 H6            1 RES     
   32888 H6        1064.7423  -879.2748  -775.4751 H6            1 RES     
   32889 H6        1065.7568  -880.6599  -774.9347 H6            1 RES     
   32890 H6        1066.1817  -879.9164  -777.2842 H6            1 RES     
   32891 H6        1066.6484  -878.2799  -776.6950 H6            1 RES     
   32892 H6        1068.6091  -879.3380  -775.4499 H6            1 RES     
   32893 H6        1068.0296  -880.9583  -775.9816 H6            1 RES     
   32894 H6        1068.4289  -880.3370  -778.3669 H6            1 RES     
   32895 H6        1069.9107  -880.2593  -777.3480 H6            1 RES     
   32896 H6        1068.2414  -877.8206  -778.2427 H6            1 RES     
   32897 H6        1069.7021  -877.7790  -777.1720 H6            1 RES     
   32898 H6        1069.8357  -878.3401  -778.8811 H6            1 RES     
   32899 H6        1061.9424  -875.3117  -774.1983 H6            1 RES     
   32900 H6        1061.9185  -873.6579  -774.1366 H6            1 RES     
   32901 H6        1060.2160  -875.2461  -772.8093 H6            1 RES     
   32902 H6        1061.4433  -875.2419  -771.5056 H6            1 RES     
   32903 H6        1059.9970  -872.8166  -772.8751 H6            1 RES     
   32904 H6        1061.1811  -872.6656  -771.5586 H6            1 RES     
   32905 H6        1059.8217  -873.8275  -769.9583 H6            1 RES     
   32906 H6        1059.1732  -872.2920  -770.6487 H6            1 RES     
   32907 H6        1057.6379  -873.4126  -772.0955 H6            1 RES     
   32908 H6        1058.1099  -875.0298  -771.4320 H6            1 RES     
   32909 H6        1057.5216  -874.2901  -769.1292 H6            1 RES     
   32910 H6        1057.1285  -872.6316  -769.6960 H6            1 RES     
   32911 H6        1055.1284  -873.9773  -769.2278 H6            1 RES     
   32912 H6        1055.5867  -875.1693  -770.5020 H6            1 RES     
   32913 H6        1055.3973  -873.3137  -772.2290 H6            1 RES     
   32914 H6        1053.8804  -873.4908  -771.2828 H6            1 RES     
   32915 H6        1055.0145  -872.1427  -770.9044 H6            1 RES     
   32916 C0        1075.0253  -866.9658  -777.2382 C0            1 RES     
   32917 C1        1074.1128  -867.2152  -776.0172 C1            1 RES     
   32918 C1        1074.7501  -866.9859  -774.8398 C1            1 RES     
   32919 S2        1073.8176  -867.3356  -773.4942 S2            1 RES     
   32920 C1        1072.5133  -867.8584  -774.4516 C1            1 RES     
   32921 C1        1072.8317  -867.7534  -775.8100 C1            1 RES     
   32922 C1        1076.0851  -866.6149  -775.1097 C1            1 RES     
   32923 C1        1076.3041  -866.6755  -776.4510 C1            1 RES     
   32924 C1        1077.6375  -866.4614  -776.7789 C1            1 RES     
   32925 C1        1078.3953  -866.2023  -775.6244 C1            1 RES     
   32926 S2        1077.4429  -866.2532  -774.2195 S2            1 RES     
   32927 H3        1072.1642  -868.1067  -776.5727 H3            1 RES     
   32928 H3        1078.0356  -866.4956  -777.7860 H3            1 RES     
   32929 N4        1081.7796  -864.6788  -775.0990 N4            1 RES     
   32930 C1        1080.4234  -864.8071  -775.1914 C1            1 RES     
   32931 C1        1079.8426  -866.0316  -775.5643 C1            1 RES     
   32932 C1        1080.6895  -867.1131  -775.8136 C1            1 RES     
   32933 N4        1080.2569  -868.3619  -776.1250 N4            1 RES     
   32934 S2        1081.6737  -869.2057  -776.2374 S2            1 RES     
   32935 N4        1082.8353  -868.0724  -775.9141 N4            1 RES     
   32936 C1        1082.0933  -866.9595  -775.6916 C1            1 RES     
   32937 C1        1082.6239  -865.7198  -775.3447 C1            1 RES     
   32938 H5        1079.7918  -863.9481  -774.9822 H5            1 RES     
   32939 C0        1074.7375  -865.7476  -778.1846 C0            1 RES     
   32940 C0        1074.9267  -864.2023  -777.9433 C0            1 RES     
   32941 C0        1074.3371  -863.5134  -779.2240 C0            1 RES     
   32942 C0        1074.4516  -861.9860  -779.3035 C0            1 RES     
   32943 C0        1073.7932  -861.4141  -780.5810 C0            1 RES     
   32944 C0        1074.4152  -861.8689  -781.9198 C0            1 RES     
   32945 C0        1075.9265  -861.6112  -782.0527 C0            1 RES     
   32946 C0        1076.3035  -860.1296  -781.8756 C0            1 RES     
   32947 C0        1077.8171  -859.8834  -781.9529 C0            1 RES     
   32948 C0        1078.4030  -860.1478  -783.3502 C0            1 RES     
   32949 C0        1079.8944  -859.7888  -783.4460 C0            1 RES     
   32950 C0        1080.7845  -860.6747  -782.5735 C0            1 RES     
   32951 C0        1074.3867  -863.5539  -776.6268 C0            1 RES     
   32952 C0        1072.8501  -863.5367  -776.3600 C0            1 RES     
   32953 C0        1072.5654  -864.2823  -775.0527 C0            1 RES     
   32954 C0        1071.1223  -864.6776  -774.7527 C0            1 RES     
   32955 C0        1070.2211  -863.5826  -774.2008 C0            1 RES     
   32956 C0        1068.8368  -864.2069  -773.9269 C0            1 RES     
   32957 C0        1067.8647  -863.2838  -773.1887 C0            1 RES     
   32958 C0        1068.2989  -863.0185  -771.7456 C0            1 RES     
   32959 H6        1073.7253  -865.8380  -778.4863 H6            1 RES     
   32960 H6        1075.3700  -865.9424  -779.0800 H6            1 RES     
   32961 H6        1076.0238  -864.0171  -777.9169 H6            1 RES     
   32962 H6        1073.2578  -863.7658  -779.3119 H6            1 RES     
   32963 H6        1074.8550  -863.9430  -780.1082 H6            1 RES     
   32964 H6        1075.5156  -861.6797  -779.2408 H6            1 RES     
   32965 H6        1073.9081  -861.5343  -778.4492 H6            1 RES     
   32966 H6        1073.8351  -860.3067  -780.5245 H6            1 RES     
   32967 H6        1072.7149  -861.6880  -780.5922 H6            1 RES     
   32968 H6        1073.8845  -861.3411  -782.7433 H6            1 RES     
   32969 H6        1074.2351  -862.9553  -782.0663 H6            1 RES     
   32970 H6        1076.4696  -862.2225  -781.3014 H6            1 RES     
   32971 H6        1076.2333  -861.9618  -783.0599 H6            1 RES     
   32972 H6        1075.9878  -859.7981  -780.8654 H6            1 RES     
   32973 H6        1075.7764  -859.5045  -782.6292 H6            1 RES     
   32974 H6        1077.9964  -858.8158  -781.6990 H6            1 RES     
   32975 H6        1078.3171  -860.5121  -781.1865 H6            1 RES     
   32976 H6        1078.2716  -861.2103  -783.6419 H6            1 RES     
   32977 H6        1077.8549  -859.5131  -784.0802 H6            1 RES     
   32978 H6        1080.0441  -858.7222  -783.1698 H6            1 RES     
   32979 H6        1080.2139  -859.9198  -784.5024 H6            1 RES     
   32980 H6        1080.5499  -860.5488  -781.4973 H6            1 RES     
   32981 H6        1080.6578  -861.7414  -782.8562 H6            1 RES     
   32982 H6        1081.8470  -860.3908  -782.7254 H6            1 RES     
   32983 H6        1074.7256  -862.4960  -776.6102 H6            1 RES     
   32984 H6        1074.9393  -863.9958  -775.7702 H6            1 RES     
   32985 H6        1072.4795  -862.4926  -776.2522 H6            1 RES     
   32986 H6        1072.3110  -864.0090  -777.2062 H6            1 RES     
   32987 H6        1073.0450  -863.7962  -774.1771 H6            1 RES     
   32988 H6        1073.0470  -865.2256  -775.1990 H6            1 RES     
   32989 H6        1070.6846  -865.1351  -775.6433 H6            1 RES     
   32990 H6        1071.1705  -865.4673  -773.9688 H6            1 RES     
   32991 H6        1070.6849  -863.2195  -773.2592 H6            1 RES     
   32992 H6        1070.1278  -862.7358  -774.9132 H6            1 RES     
   32993 H6        1068.3885  -864.4914  -774.9059 H6            1 RES     
   32994 H6        1068.9416  -865.1371  -773.3233 H6            1 RES     
   32995 H6        1066.8777  -863.7951  -773.1489 H6            1 RES     
   32996 H6        1067.7440  -862.3291  -773.7426 H6            1 RES     
   32997 H6        1069.2619  -862.4725  -771.7046 H6            1 RES     
   32998 H6        1067.5300  -862.4043  -771.2345 H6            1 RES     
   32999 H6        1068.4027  -863.9799  -771.1946 H6            1 RES     
   33000 C0        1075.0487  -868.3374  -778.0217 C0            1 RES     
   33001 C0        1074.4111  -868.5971  -779.4612 C0            1 RES     
   33002 C0        1074.1885  -870.1431  -779.5739 C0            1 RES     
   33003 C0        1073.8284  -870.6637  -780.9801 C0            1 RES     
   33004 C0        1073.5954  -872.1837  -781.0394 C0            1 RES     
   33005 C0        1074.7911  -873.0600  -780.6251 C0            1 RES     
   33006 C0        1076.1037  -872.7699  -781.3717 C0            1 RES     
   33007 C0        1075.9823  -872.9070  -782.8997 C0            1 RES     
   33008 C0        1077.3011  -872.6089  -783.6311 C0            1 RES     
   33009 C0        1078.3972  -873.6487  -783.3371 C0            1 RES     
   33010 C0        1079.6740  -873.4246  -784.1621 C0            1 RES     
   33011 C0        1080.3962  -872.1227  -783.8147 C0            1 RES     
   33012 C0        1073.1902  -867.7959  -780.0811 C0            1 RES     
   33013 C0        1071.7513  -867.9110  -779.5029 C0            1 RES     
   33014 C0        1071.3298  -866.6515  -778.7248 C0            1 RES     
   33015 C0        1069.9619  -866.6856  -778.0633 C0            1 RES     
   33016 C0        1068.7496  -866.5844  -778.9783 C0            1 RES     
   33017 C0        1067.5079  -866.4644  -778.0713 C0            1 RES     
   33018 C0        1066.1998  -866.1977  -778.8182 C0            1 RES     
   33019 C0        1066.1726  -864.8122  -779.4654 C0            1 RES     
   33020 H6        1074.6957  -869.1347  -777.3269 H6            1 RES     
   33021 H6        1076.1162  -868.6311  -778.1400 H6            1 RES     
   33022 H6        1075.2333  -868.3296  -780.1644 H6            1 RES     
   33023 H6        1073.3852  -870.4465  -778.8682 H6            1 RES     
   33024 H6        1075.1283  -870.6449  -779.2580 H6            1 RES     
   33025 H6        1074.6243  -870.3689  -781.6957 H6            1 RES     
   33026 H6        1072.8705  -870.2242  -781.3195 H6            1 RES     
   33027 H6        1073.3046  -872.4405  -782.0804 H6            1 RES     
   33028 H6        1072.7312  -872.4469  -780.3906 H6            1 RES     
   33029 H6        1074.5062  -874.1227  -780.7869 H6            1 RES     
   33030 H6        1074.9782  -872.9340  -779.5374 H6            1 RES     
   33031 H6        1076.4540  -871.7453  -781.1232 H6            1 RES     
   33032 H6        1076.8552  -873.4879  -780.9846 H6            1 RES     
   33033 H6        1075.2387  -872.1698  -783.2682 H6            1 RES     
   33034 H6        1075.6254  -873.9248  -783.1681 H6            1 RES     
   33035 H6        1077.0914  -872.6259  -784.7228 H6            1 RES     
   33036 H6        1077.6395  -871.5869  -783.3578 H6            1 RES     
   33037 H6        1078.6667  -873.6497  -782.2608 H6            1 RES     
   33038 H6        1077.9991  -874.6533  -783.5992 H6            1 RES     
   33039 H6        1079.4292  -873.4382  -785.2465 H6            1 RES     
   33040 H6        1080.3694  -874.2662  -783.9541 H6            1 RES     
   33041 H6        1079.7705  -871.2386  -784.0514 H6            1 RES     
   33042 H6        1080.6637  -872.1080  -782.7366 H6            1 RES     
   33043 H6        1081.3292  -872.0507  -784.4122 H6            1 RES     
   33044 H6        1073.1162  -868.1620  -781.1216 H6            1 RES     
   33045 H6        1073.4371  -866.7460  -780.3270 H6            1 RES     
   33046 H6        1071.0446  -867.9531  -780.3609 H6            1 RES     
   33047 H6        1071.6295  -868.8499  -778.9258 H6            1 RES     
   33048 H6        1071.4132  -865.7514  -779.3753 H6            1 RES     
   33049 H6        1071.9871  -866.5100  -777.8742 H6            1 RES     
   33050 H6        1069.8882  -867.5690  -777.3925 H6            1 RES     
   33051 H6        1069.9203  -865.7662  -777.4564 H6            1 RES     
   33052 H6        1068.8692  -865.6715  -779.5993 H6            1 RES     
   33053 H6        1068.6719  -867.4709  -779.6416 H6            1 RES     
   33054 H6        1067.4070  -867.4126  -777.4985 H6            1 RES     
   33055 H6        1067.6459  -865.6399  -777.3344 H6            1 RES     
   33056 H6        1065.3786  -866.2315  -778.0689 H6            1 RES     
   33057 H6        1066.0235  -866.9886  -779.5740 H6            1 RES     
   33058 H6        1066.9432  -864.7190  -780.2562 H6            1 RES     
   33059 H6        1065.1785  -864.6435  -779.9278 H6            1 RES     
   33060 H6        1066.3412  -864.0253  -778.6978 H6            1 RES     
   33061 C0        1087.8375  -864.6944  -776.5045 C0            1 RES     
   33062 C1        1086.4885  -864.9977  -775.8160 C1            1 RES     
   33063 C1        1086.6463  -865.4403  -774.5415 C1            1 RES     
   33064 S2        1085.2083  -865.8659  -773.7975 S2            1 RES     
   33065 C1        1084.3038  -865.5087  -775.1921 C1            1 RES     
   33066 C1        1085.1443  -865.0649  -776.2189 C1            1 RES     
   33067 C1        1088.0262  -865.5155  -774.2534 C1            1 RES     
   33068 C1        1088.7345  -865.1843  -775.3667 C1            1 RES     
   33069 C1        1090.1010  -865.3744  -775.1995 C1            1 RES     
   33070 C1        1090.3819  -865.8274  -773.8994 C1            1 RES     
   33071 S2        1088.9691  -866.0082  -772.9749 S2            1 RES     
   33072 H3        1084.7694  -864.8619  -777.2041 H3            1 RES     
   33073 H3        1090.8439  -865.2016  -775.9689 H3            1 RES     
   33074 N4        1093.5345  -865.9329  -771.8745 N4            1 RES     
   33075 C1        1092.3317  -865.5149  -772.3671 C1            1 RES     
   33076 C1        1091.6882  -866.2310  -773.3913 C1            1 RES     
   33077 C1        1092.3024  -867.3894  -773.8709 C1            1 RES     
   33078 N4        1091.7618  -868.2020  -774.8147 N4            1 RES     
   33079 S2        1092.8837  -869.4110  -774.9207 S2            1 RES     
   33080 N4        1094.0449  -868.9694  -773.8276 N4            1 RES     
   33081 C1        1093.5418  -867.8131  -773.3291 C1            1 RES     
   33082 C1        1094.1540  -867.0565  -772.3333 C1            1 RES     
   33083 H5        1091.8760  -864.6138  -771.9658 H5            1 RES     
   33084 C0        1088.2218  -863.2093  -776.8355 C0            1 RES     
   33085 C0        1088.6384  -862.0272  -775.8811 C0            1 RES     
   33086 C0        1088.7672  -860.7733  -776.8157 C0            1 RES     
   33087 C0        1089.2390  -859.4683  -776.1624 C0            1 RES     
   33088 C0        1089.2792  -858.2913  -777.1653 C0            1 RES     
   33089 C0        1090.2590  -858.4492  -778.3489 C0            1 RES     
   33090 C0        1091.7174  -858.7343  -777.9491 C0            1 RES     
   33091 C0        1092.3128  -857.6538  -777.0290 C0            1 RES     
   33092 C0        1093.7489  -857.9689  -776.5864 C0            1 RES     
   33093 C0        1094.7616  -857.9289  -777.7432 C0            1 RES     
   33094 C0        1096.2102  -858.1320  -777.2713 C0            1 RES     
   33095 C0        1096.4662  -859.5250  -776.6949 C0            1 RES     
   33096 C0        1087.7834  -861.7245  -774.6073 C0            1 RES     
   33097 C0        1086.3108  -861.2389  -774.7753 C0            1 RES     
   33098 C0        1085.3784  -862.2307  -774.0729 C0            1 RES     
   33099 C0        1083.8849  -862.1472  -774.3747 C0            1 RES     
   33100 C0        1083.1065  -861.0620  -773.6454 C0            1 RES     
   33101 C0        1081.6248  -861.1888  -774.0575 C0            1 RES     
   33102 C0        1080.6719  -860.2905  -773.2657 C0            1 RES     
   33103 C0        1080.5520  -860.7194  -771.8018 C0            1 RES     
   33104 H6        1087.4165  -862.8123  -777.3991 H6            1 RES     
   33105 H6        1089.0946  -863.2998  -777.5209 H6            1 RES     
   33106 H6        1089.6485  -862.2783  -775.4870 H6            1 RES     
   33107 H6        1087.7822  -860.5655  -777.2880 H6            1 RES     
   33108 H6        1089.4812  -861.0285  -777.6278 H6            1 RES     
   33109 H6        1090.2322  -859.6152  -775.6913 H6            1 RES     
   33110 H6        1088.5187  -859.1744  -775.3724 H6            1 RES     
   33111 H6        1089.5398  -857.3696  -776.6051 H6            1 RES     
   33112 H6        1088.2603  -858.1290  -777.5816 H6            1 RES     
   33113 H6        1090.2253  -857.5141  -778.9513 H6            1 RES     
   33114 H6        1089.9151  -859.2711  -779.0126 H6            1 RES     
   33115 H6        1091.7720  -859.7211  -777.4429 H6            1 RES     
   33116 H6        1092.3089  -858.8013  -778.8858 H6            1 RES     
   33117 H6        1091.7080  -857.6011  -776.1008 H6            1 RES     
   33118 H6        1092.2764  -856.6601  -777.5268 H6            1 RES     
   33119 H6        1094.0458  -857.2002  -775.8400 H6            1 RES     
   33120 H6        1093.7552  -858.9602  -776.0864 H6            1 RES     
   33121 H6        1094.5234  -858.6977  -778.5071 H6            1 RES     
   33122 H6        1094.6993  -856.9274  -778.2221 H6            1 RES     
   33123 H6        1096.4717  -857.3609  -776.5140 H6            1 RES     
   33124 H6        1096.8809  -857.9970  -778.1471 H6            1 RES     
   33125 H6        1095.8623  -859.7024  -775.7822 H6            1 RES     
   33126 H6        1096.2276  -860.3023  -777.4516 H6            1 RES     
   33127 H6        1097.5371  -859.6165  -776.4172 H6            1 RES     
   33128 H6        1088.3138  -860.9405  -774.0256 H6            1 RES     
   33129 H6        1087.8428  -862.6048  -773.9321 H6            1 RES     
   33130 H6        1086.1690  -860.2385  -774.3082 H6            1 RES     
   33131 H6        1086.0569  -861.1568  -775.8516 H6            1 RES     
   33132 H6        1085.5708  -862.2892  -772.9809 H6            1 RES     
   33133 H6        1085.6568  -863.1715  -774.4981 H6            1 RES     
   33134 H6        1083.7422  -862.0741  -775.4556 H6            1 RES     
   33135 H6        1083.4453  -863.1181  -774.0512 H6            1 RES     
   33136 H6        1083.2314  -861.2438  -772.5569 H6            1 RES     
   33137 H6        1083.4903  -860.0500  -773.8939 H6            1 RES     
   33138 H6        1081.5458  -860.9318  -775.1383 H6            1 RES     
   33139 H6        1081.2755  -862.2395  -773.9364 H6            1 RES     
   33140 H6        1079.6619  -860.3844  -773.7220 H6            1 RES     
   33141 H6        1080.9929  -859.2301  -773.3376 H6            1 RES     
   33142 H6        1081.5166  -860.6147  -771.2671 H6            1 RES     
   33143 H6        1079.8011  -860.0838  -771.2899 H6            1 RES     
   33144 H6        1080.2155  -861.7785  -771.7398 H6            1 RES     
   33145 C0        1087.8619  -865.6169  -777.7867 C0            1 RES     
   33146 C0        1087.8000  -865.1099  -779.2984 C0            1 RES     
   33147 C0        1087.3030  -866.3249  -780.1523 C0            1 RES     
   33148 C0        1087.4179  -866.1565  -781.6809 C0            1 RES     
   33149 C0        1086.8965  -867.3637  -782.4802 C0            1 RES     
   33150 C0        1087.6071  -868.7020  -782.2098 C0            1 RES     
   33151 C0        1089.1362  -868.6742  -782.3706 C0            1 RES     
   33152 C0        1089.5969  -868.2198  -783.7668 C0            1 RES     
   33153 C0        1091.1273  -868.1925  -783.9094 C0            1 RES     
   33154 C0        1091.7601  -869.5940  -783.8417 C0            1 RES     
   33155 C0        1093.2733  -869.5829  -784.1085 C0            1 RES     
   33156 C0        1094.0701  -868.8430  -783.0339 C0            1 RES     
   33157 C0        1087.1308  -863.7562  -779.7846 C0            1 RES     
   33158 C0        1085.5939  -863.5284  -779.7214 C0            1 RES     
   33159 C0        1085.1914  -862.5550  -778.5989 C0            1 RES     
   33160 C0        1083.7031  -862.3121  -778.4094 C0            1 RES     
   33161 C0        1083.0023  -861.4641  -779.4615 C0            1 RES     
   33162 C0        1081.5645  -861.2192  -778.9599 C0            1 RES     
   33163 C0        1080.7489  -860.2513  -779.8191 C0            1 RES     
   33164 C0        1081.2855  -858.8207  -779.7510 C0            1 RES     
   33165 H6        1087.0975  -866.4166  -777.6478 H6            1 RES     
   33166 H6        1088.7963  -866.2209  -777.7403 H6            1 RES     
   33167 H6        1088.8692  -864.9369  -779.5610 H6            1 RES     
   33168 H6        1086.2418  -866.5368  -779.8988 H6            1 RES     
   33169 H6        1087.9068  -867.2119  -779.8635 H6            1 RES     
   33170 H6        1088.4745  -865.9460  -781.9487 H6            1 RES     
   33171 H6        1086.7933  -865.3086  -782.0226 H6            1 RES     
   33172 H6        1086.9884  -867.1191  -783.5600 H6            1 RES     
   33173 H6        1085.8121  -867.4988  -782.2730 H6            1 RES     
   33174 H6        1087.1809  -869.4597  -782.9032 H6            1 RES     
   33175 H6        1087.3753  -869.0378  -781.1766 H6            1 RES     
   33176 H6        1089.5783  -868.0033  -781.6033 H6            1 RES     
   33177 H6        1089.4961  -869.7036  -782.1683 H6            1 RES     
   33178 H6        1089.2410  -867.1831  -783.9425 H6            1 RES     
   33179 H6        1089.1582  -868.8755  -784.5497 H6            1 RES     
   33180 H6        1091.3647  -867.7530  -784.9027 H6            1 RES     
   33181 H6        1091.5486  -867.5281  -783.1253 H6            1 RES     
   33182 H6        1091.5782  -870.0657  -782.8541 H6            1 RES     
   33183 H6        1091.2850  -870.2254  -784.6240 H6            1 RES     
   33184 H6        1093.4772  -869.1301  -785.1031 H6            1 RES     
   33185 H6        1093.6260  -870.6366  -784.1295 H6            1 RES     
   33186 H6        1093.8003  -867.7682  -782.9998 H6            1 RES     
   33187 H6        1093.8892  -869.3010  -782.0382 H6            1 RES     
   33188 H6        1095.1535  -868.9160  -783.2659 H6            1 RES     
   33189 H6        1087.3919  -863.6856  -780.8565 H6            1 RES     
   33190 H6        1087.6803  -862.8546  -779.4544 H6            1 RES     
   33191 H6        1085.2903  -863.0092  -780.6571 H6            1 RES     
   33192 H6        1085.0507  -864.4944  -779.6862 H6            1 RES     
   33193 H6        1085.7205  -861.5831  -778.7242 H6            1 RES     
   33194 H6        1085.4757  -862.9676  -777.6374 H6            1 RES     
   33195 H6        1083.1784  -863.2801  -778.2566 H6            1 RES     
   33196 H6        1083.6315  -861.7124  -777.4870 H6            1 RES     
   33197 H6        1083.5550  -860.5046  -779.5464 H6            1 RES     
   33198 H6        1082.9968  -861.9721  -780.4484 H6            1 RES     
   33199 H6        1081.0396  -862.1993  -778.9271 H6            1 RES     
   33200 H6        1081.5813  -860.8122  -777.9226 H6            1 RES     
   33201 H6        1079.7143  -860.2387  -779.4112 H6            1 RES     
   33202 H6        1080.7129  -860.6086  -780.8673 H6            1 RES     
   33203 H6        1082.3044  -858.7491  -780.1807 H6            1 RES     
   33204 H6        1080.6169  -858.1509  -780.3296 H6            1 RES     
   33205 H6        1081.3092  -858.4681  -778.6965 H6            1 RES     
   33206 C0        1099.4906  -867.6798  -771.4902 C0            1 RES     
   33207 C1        1097.9490  -867.6856  -771.3945 C1            1 RES     
   33208 C1        1097.4916  -868.5664  -770.4670 C1            1 RES     
   33209 S2        1095.8217  -868.6646  -770.4027 S2            1 RES     
   33210 C1        1095.6406  -867.5424  -771.6671 C1            1 RES     
   33211 C1        1096.8922  -867.1119  -772.1210 C1            1 RES     
   33212 C1        1098.5938  -869.2365  -769.8935 C1            1 RES     
   33213 C1        1099.7364  -868.8250  -770.5067 C1            1 RES     
   33214 C1        1100.8485  -869.5477  -770.0917 C1            1 RES     
   33215 C1        1100.4888  -870.4914  -769.1149 C1            1 RES     
   33216 S2        1098.8248  -870.4497  -768.7793 S2            1 RES     
   33217 H3        1096.9890  -866.4585  -772.9672 H3            1 RES     
   33218 H3        1101.8519  -869.4046  -770.4744 H3            1 RES     
   33219 N4        1102.4853  -872.4377  -766.6096 N4            1 RES     
   33220 C1        1101.6974  -871.4656  -767.1559 C1            1 RES     
   33221 C1        1101.3662  -871.4944  -768.5217 C1            1 RES     
   33222 C1        1101.8460  -872.5542  -769.2933 C1            1 RES     
   33223 N4        1101.5537  -872.7318  -770.6073 N4            1 RES     
   33224 S2        1102.3290  -874.1506  -770.9502 S2            1 RES     
   33225 N4        1103.0346  -874.5724  -769.5141 N4            1 RES     
   33226 C1        1102.6460  -873.5616  -768.6981 C1            1 RES     
   33227 C1        1102.9694  -873.4766  -767.3464 C1            1 RES     
   33228 H5        1101.3329  -870.6590  -766.5257 H5            1 RES     
   33229 C0        1100.2926  -866.4232  -770.9997 C0            1 RES     
   33230 C0        1100.5519  -865.8847  -769.5420 C0            1 RES     
   33231 C0        1101.3114  -864.5255  -769.7375 C0            1 RES     
   33232 C0        1101.7654  -863.7970  -768.4665 C0            1 RES     
   33233 C0        1102.4555  -862.4482  -768.7783 C0            1 RES     
   33234 C0        1103.7597  -862.5343  -769.6016 C0            1 RES     
   33235 C0        1104.8416  -863.4531  -769.0072 C0            1 RES     
   33236 C0        1105.2514  -863.0560  -767.5779 C0            1 RES     
   33237 C0        1106.2900  -864.0073  -766.9664 C0            1 RES     
   33238 C0        1107.6569  -863.9438  -767.6686 C0            1 RES     
   33239 C0        1108.7198  -864.8131  -766.9782 C0            1 RES     
   33240 C0        1108.4136  -866.3096  -767.0500 C0            1 RES     
   33241 C0        1099.3559  -865.7504  -768.5437 C0            1 RES     
   33242 C0        1098.2147  -864.7333  -768.8535 C0            1 RES     
   33243 C0        1096.8871  -865.4913  -768.9482 C0            1 RES     
   33244 C0        1095.6906  -864.7677  -769.5595 C0            1 RES     
   33245 C0        1094.9500  -863.7972  -768.6510 C0            1 RES     
   33246 C0        1093.7609  -863.2215  -769.4485 C0            1 RES     
   33247 C0        1092.7985  -862.3702  -768.6171 C0            1 RES     
   33248 C0        1092.0221  -863.2029  -767.5948 C0            1 RES     
   33249 H6        1099.8828  -865.5904  -771.5117 H6            1 RES     
   33250 H6        1101.3206  -866.5842  -771.3958 H6            1 RES     
   33251 H6        1101.2433  -866.6079  -769.0548 H6            1 RES     
   33252 H6        1100.6634  -863.8219  -770.3045 H6            1 RES     
   33253 H6        1102.2109  -864.7268  -770.3579 H6            1 RES     
   33254 H6        1102.4346  -864.4506  -767.8709 H6            1 RES     
   33255 H6        1100.8774  -863.5523  -767.8493 H6            1 RES     
   33256 H6        1102.6725  -861.9412  -767.8155 H6            1 RES     
   33257 H6        1101.7452  -861.7908  -769.3271 H6            1 RES     
   33258 H6        1104.1731  -861.5059  -769.7008 H6            1 RES     
   33259 H6        1103.5309  -862.8888  -770.6293 H6            1 RES     
   33260 H6        1104.4730  -864.5006  -769.0078 H6            1 RES     
   33261 H6        1105.7223  -863.4039  -769.6807 H6            1 RES     
   33262 H6        1104.3590  -863.1098  -766.9215 H6            1 RES     
   33263 H6        1105.6344  -862.0121  -767.5622 H6            1 RES     
   33264 H6        1106.4325  -863.7102  -765.9045 H6            1 RES     
   33265 H6        1105.8798  -865.0388  -766.9871 H6            1 RES     
   33266 H6        1107.5736  -864.2566  -768.7301 H6            1 RES     
   33267 H6        1108.0111  -862.8903  -767.6401 H6            1 RES     
   33268 H6        1108.8270  -864.5047  -765.9154 H6            1 RES     
   33269 H6        1109.6921  -864.6394  -767.4877 H6            1 RES     
   33270 H6        1107.4771  -866.5571  -766.5108 H6            1 RES     
   33271 H6        1108.3253  -866.6320  -768.1093 H6            1 RES     
   33272 H6        1109.2404  -866.8770  -766.5738 H6            1 RES     
   33273 H6        1099.7748  -865.4686  -767.5540 H6            1 RES     
   33274 H6        1098.9489  -866.7661  -768.3509 H6            1 RES     
   33275 H6        1098.1265  -863.9787  -768.0400 H6            1 RES     
   33276 H6        1098.4286  -864.1972  -769.8004 H6            1 RES     
   33277 H6        1096.6173  -865.9899  -767.9934 H6            1 RES     
   33278 H6        1097.0940  -866.2590  -769.6632 H6            1 RES     
   33279 H6        1096.0036  -864.2786  -770.4852 H6            1 RES     
   33280 H6        1094.9562  -865.5573  -769.8382 H6            1 RES     
   33281 H6        1094.5942  -864.3764  -767.7727 H6            1 RES     
   33282 H6        1095.6143  -862.9777  -768.3043 H6            1 RES     
   33283 H6        1094.1714  -862.5969  -770.2741 H6            1 RES     
   33284 H6        1093.1687  -864.0430  -769.9122 H6            1 RES     
   33285 H6        1092.0551  -861.9234  -769.3135 H6            1 RES     
   33286 H6        1093.3483  -861.5469  -768.1144 H6            1 RES     
   33287 H6        1092.6967  -863.6507  -766.8387 H6            1 RES     
   33288 H6        1091.2917  -862.5558  -767.0680 H6            1 RES     
   33289 H6        1091.4627  -864.0159  -768.1094 H6            1 RES     
   33290 C0        1099.8111  -868.0423  -772.9940 C0            1 RES     
   33291 C0        1100.4613  -867.0590  -774.0694 C0            1 RES     
   33292 C0        1100.0835  -867.6312  -775.4773 C0            1 RES     
   33293 C0        1100.8231  -866.9994  -776.6738 C0            1 RES     
   33294 C0        1100.4038  -867.5748  -778.0381 C0            1 RES     
   33295 C0        1100.6357  -869.0847  -778.2267 C0            1 RES     
   33296 C0        1102.0699  -869.5652  -777.9500 C0            1 RES     
   33297 C0        1103.1298  -868.8587  -778.8135 C0            1 RES     
   33298 C0        1104.5580  -869.3466  -778.5213 C0            1 RES     
   33299 C0        1104.7858  -870.8125  -778.9316 C0            1 RES     
   33300 C0        1106.2438  -871.2650  -778.7570 C0            1 RES     
   33301 C0        1106.6974  -871.2893  -777.2973 C0            1 RES     
   33302 C0        1100.3546  -865.4763  -774.0469 C0            1 RES     
   33303 C0        1099.0082  -864.7383  -774.2932 C0            1 RES     
   33304 C0        1098.4241  -864.1381  -773.0017 C0            1 RES     
   33305 C0        1097.0750  -863.4485  -773.1207 C0            1 RES     
   33306 C0        1097.0501  -862.0955  -773.8177 C0            1 RES     
   33307 C0        1095.6239  -861.5306  -773.6566 C0            1 RES     
   33308 C0        1095.4474  -860.0986  -774.1649 C0            1 RES     
   33309 C0        1096.2167  -859.0829  -773.3189 C0            1 RES     
   33310 H6        1098.8970  -868.5011  -773.4380 H6            1 RES     
   33311 H6        1100.4932  -868.9224  -772.9826 H6            1 RES     
   33312 H6        1101.5572  -867.2104  -773.9345 H6            1 RES     
   33313 H6        1098.9897  -867.5131  -775.6355 H6            1 RES     
   33314 H6        1100.3127  -868.7186  -775.4740 H6            1 RES     
   33315 H6        1101.9181  -867.1120  -776.5296 H6            1 RES     
   33316 H6        1100.5875  -865.9199  -776.7454 H6            1 RES     
   33317 H6        1100.9638  -867.0238  -778.8237 H6            1 RES     
   33318 H6        1099.3246  -867.3658  -778.2071 H6            1 RES     
   33319 H6        1100.3594  -869.3433  -779.2723 H6            1 RES     
   33320 H6        1099.9489  -869.6471  -777.5587 H6            1 RES     
   33321 H6        1102.3122  -869.4130  -776.8765 H6            1 RES     
   33322 H6        1102.0838  -870.6563  -778.1488 H6            1 RES     
   33323 H6        1103.1106  -867.7721  -778.5877 H6            1 RES     
   33324 H6        1102.9000  -868.9938  -779.8926 H6            1 RES     
   33325 H6        1105.2570  -868.7104  -779.1067 H6            1 RES     
   33326 H6        1104.7736  -869.1981  -777.4419 H6            1 RES     
   33327 H6        1104.1314  -871.4948  -778.3510 H6            1 RES     
   33328 H6        1104.5287  -870.9133  -780.0087 H6            1 RES     
   33329 H6        1106.9164  -870.6046  -779.3464 H6            1 RES     
   33330 H6        1106.3335  -872.2972  -779.1591 H6            1 RES     
   33331 H6        1106.6813  -870.2738  -776.8528 H6            1 RES     
   33332 H6        1106.0437  -871.9630  -776.7033 H6            1 RES     
   33333 H6        1107.7394  -871.6691  -777.2438 H6            1 RES     
   33334 H6        1101.0239  -865.1404  -774.8601 H6            1 RES     
   33335 H6        1100.9154  -865.0130  -773.2135 H6            1 RES     
   33336 H6        1099.2194  -863.8551  -774.9355 H6            1 RES     
   33337 H6        1098.2955  -865.3860  -774.8427 H6            1 RES     
   33338 H6        1099.1610  -863.4490  -772.5300 H6            1 RES     
   33339 H6        1098.2093  -864.9311  -772.2942 H6            1 RES     
   33340 H6        1096.3321  -864.1453  -773.5661 H6            1 RES     
   33341 H6        1096.7820  -863.2232  -772.0820 H6            1 RES     
   33342 H6        1097.7893  -861.4397  -773.3110 H6            1 RES     
   33343 H6        1097.3198  -862.1911  -774.8901 H6            1 RES     
   33344 H6        1094.9253  -862.1963  -774.2097 H6            1 RES     
   33345 H6        1095.3220  -861.5438  -772.5839 H6            1 RES     
   33346 H6        1094.3665  -859.8497  -774.0830 H6            1 RES     
   33347 H6        1095.7474  -860.0316  -775.2295 H6            1 RES     
   33348 H6        1097.3107  -859.2457  -773.3855 H6            1 RES     
   33349 H6        1095.9952  -858.0593  -773.6844 H6            1 RES     
   33350 H6        1095.9021  -859.1516  -772.2543 H6            1 RES     
   33351 C0        1107.2646  -876.2616  -765.5097 C0            1 RES     
   33352 C1        1105.8495  -875.7350  -765.8353 C1            1 RES     
   33353 C1        1104.8822  -876.6490  -765.5632 C1            1 RES     
   33354 S2        1103.3444  -876.1442  -765.9908 S2            1 RES     
   33355 C1        1103.9275  -874.6713  -766.6084 C1            1 RES     
   33356 C1        1105.3183  -874.6011  -766.4722 C1            1 RES     
   33357 C1        1105.4927  -877.8299  -765.0883 C1            1 RES     
   33358 C1        1106.8445  -877.6810  -765.1251 C1            1 RES     
   33359 C1        1107.5143  -878.8562  -764.8066 C1            1 RES     
   33360 C1        1106.6008  -879.8775  -764.4953 C1            1 RES     
   33361 S2        1104.9929  -879.3478  -764.6269 S2            1 RES     
   33362 H3        1105.8815  -873.7795  -766.8724 H3            1 RES     
   33363 H3        1108.5920  -878.9679  -764.8048 H3            1 RES     
   33364 N4        1106.9689  -883.1564  -762.7167 N4            1 RES     
   33365 C1        1106.6953  -881.8391  -762.9492 C1            1 RES     
   33366 C1        1106.9291  -881.2704  -764.2132 C1            1 RES     
   33367 C1        1107.4254  -882.0949  -765.2245 C1            1 RES     
   33368 N4        1107.6407  -881.6869  -766.5015 N4            1 RES     
   33369 S2        1108.1530  -883.0780  -767.2323 S2            1 RES     
   33370 N4        1108.1260  -884.1975  -766.0140 N4            1 RES     
   33371 C1        1107.6829  -883.4640  -764.9631 C1            1 RES     
   33372 C1        1107.4601  -883.9765  -763.6877 C1            1 RES     
   33373 H5        1106.3013  -881.2267  -762.1428 H5            1 RES     
   33374 C0        1108.0665  -875.6396  -764.3127 C0            1 RES     
   33375 C0        1107.8454  -875.7734  -762.7587 C0            1 RES     
   33376 C0        1108.9013  -874.8099  -762.1111 C0            1 RES     
   33377 C0        1108.9692  -874.7863  -760.5791 C0            1 RES     
   33378 C0        1110.0065  -873.7662  -760.0536 C0            1 RES     
   33379 C0        1111.4747  -874.0337  -760.4521 C0            1 RES     
   33380 C0        1112.0037  -875.4294  -760.0773 C0            1 RES     
   33381 C0        1111.8967  -875.7306  -758.5719 C0            1 RES     
   33382 C0        1112.3732  -877.1443  -758.2086 C0            1 RES     
   33383 C0        1113.8831  -877.3474  -758.4198 C0            1 RES     
   33384 C0        1114.3685  -878.7266  -757.9458 C0            1 RES     
   33385 C0        1113.7917  -879.8822  -758.7643 C0            1 RES     
   33386 C0        1106.4157  -875.5643  -762.1608 C0            1 RES     
   33387 C0        1105.7438  -874.1606  -762.2641 C0            1 RES     
   33388 C0        1104.4278  -874.2962  -763.0360 C0            1 RES     
   33389 C0        1103.7599  -873.0214  -763.5435 C0            1 RES     
   33390 C0        1102.9573  -872.2259  -762.5245 C0            1 RES     
   33391 C0        1102.3363  -871.0172  -763.2556 C0            1 RES     
   33392 C0        1101.3395  -870.2166  -762.4144 C0            1 RES     
   33393 C0        1100.0608  -871.0050  -762.1235 C0            1 RES     
   33394 H6        1108.0861  -874.5930  -764.4799 H6            1 RES     
   33395 H6        1109.1040  -876.0183  -764.4535 H6            1 RES     
   33396 H6        1108.1112  -876.8199  -762.4891 H6            1 RES     
   33397 H6        1108.7011  -873.7686  -762.4460 H6            1 RES     
   33398 H6        1109.9031  -875.0988  -762.4950 H6            1 RES     
   33399 H6        1109.1881  -875.8021  -760.1916 H6            1 RES     
   33400 H6        1107.9885  -874.4631  -760.1753 H6            1 RES     
   33401 H6        1109.9348  -873.7406  -758.9466 H6            1 RES     
   33402 H6        1109.7334  -872.7484  -760.4102 H6            1 RES     
   33403 H6        1112.1106  -873.2625  -759.9629 H6            1 RES     
   33404 H6        1111.5952  -873.9008  -761.5485 H6            1 RES     
   33405 H6        1111.4429  -876.1990  -760.6484 H6            1 RES     
   33406 H6        1113.0651  -875.4766  -760.3980 H6            1 RES     
   33407 H6        1110.8307  -875.6771  -758.2709 H6            1 RES     
   33408 H6        1112.4638  -874.9746  -757.9857 H6            1 RES     
   33409 H6        1112.1497  -877.3070  -757.1317 H6            1 RES     
   33410 H6        1111.7866  -877.8780  -758.8005 H6            1 RES     
   33411 H6        1114.1559  -877.2201  -759.4879 H6            1 RES     
   33412 H6        1114.4215  -876.5770  -757.8259 H6            1 RES     
   33413 H6        1114.1155  -878.8669  -756.8722 H6            1 RES     
   33414 H6        1115.4749  -878.7565  -758.0464 H6            1 RES     
   33415 H6        1112.6893  -879.9394  -758.6624 H6            1 RES     
   33416 H6        1114.0572  -879.7622  -759.8362 H6            1 RES     
   33417 H6        1114.2173  -880.8400  -758.3982 H6            1 RES     
   33418 H6        1106.4638  -875.8166  -761.0798 H6            1 RES     
   33419 H6        1105.7517  -876.3593  -762.5627 H6            1 RES     
   33420 H6        1105.5131  -873.7576  -761.2524 H6            1 RES     
   33421 H6        1106.4251  -873.4484  -762.7725 H6            1 RES     
   33422 H6        1103.7020  -874.9583  -762.5186 H6            1 RES     
   33423 H6        1104.7230  -874.7880  -763.9384 H6            1 RES     
   33424 H6        1104.5109  -872.3935  -764.0291 H6            1 RES     
   33425 H6        1103.0387  -873.3381  -764.3310 H6            1 RES     
   33426 H6        1102.1667  -872.8995  -762.1313 H6            1 RES     
   33427 H6        1103.5959  -871.8812  -761.6839 H6            1 RES     
   33428 H6        1103.1650  -870.3425  -763.5691 H6            1 RES     
   33429 H6        1101.8075  -871.3495  -764.1779 H6            1 RES     
   33430 H6        1101.0481  -869.3176  -763.0009 H6            1 RES     
   33431 H6        1101.8155  -869.8806  -761.4692 H6            1 RES     
   33432 H6        1100.2671  -871.9004  -761.5047 H6            1 RES     
   33433 H6        1099.3454  -870.3605  -761.5733 H6            1 RES     
   33434 H6        1099.5832  -871.3245  -763.0767 H6            1 RES     
   33435 C0        1108.0605  -876.1722  -766.8714 C0            1 RES     
   33436 C0        1109.2808  -875.1892  -767.1726 C0            1 RES     
   33437 C0        1109.3691  -875.0583  -768.7306 C0            1 RES     
   33438 C0        1110.6389  -874.3698  -769.2706 C0            1 RES     
   33439 C0        1110.6724  -874.2415  -770.8037 C0            1 RES     
   33440 C0        1110.6189  -875.5656  -771.5867 C0            1 RES     
   33441 C0        1111.6842  -876.6018  -771.1920 C0            1 RES     
   33442 C0        1113.1257  -876.0812  -771.3304 C0            1 RES     
   33443 C0        1114.1780  -877.1269  -770.9273 C0            1 RES     
   33444 C0        1114.2175  -878.3348  -771.8805 C0            1 RES     
   33445 C0        1115.3504  -879.3203  -771.5539 C0            1 RES     
   33446 C0        1115.1772  -880.0122  -770.2017 C0            1 RES     
   33447 C0        1109.5274  -873.7907  -766.4654 C0            1 RES     
   33448 C0        1108.5855  -872.5748  -766.6946 C0            1 RES     
   33449 C0        1107.6903  -872.2888  -765.4755 C0            1 RES     
   33450 C0        1106.6854  -871.1577  -765.6189 C0            1 RES     
   33451 C0        1107.2364  -869.7388  -765.6074 C0            1 RES     
   33452 C0        1106.0252  -868.7840  -765.5886 C0            1 RES     
   33453 C0        1106.3843  -867.3066  -765.4204 C0            1 RES     
   33454 C0        1106.9641  -867.0036  -764.0380 C0            1 RES     
   33455 H6        1107.3170  -876.0802  -767.6972 H6            1 RES     
   33456 H6        1108.4700  -877.1863  -767.0809 H6            1 RES     
   33457 H6        1110.1726  -875.7682  -766.8386 H6            1 RES     
   33458 H6        1108.4810  -874.5009  -769.0990 H6            1 RES     
   33459 H6        1109.3315  -876.0827  -769.1596 H6            1 RES     
   33460 H6        1111.5349  -874.9181  -768.9113 H6            1 RES     
   33461 H6        1110.6958  -873.3262  -768.9050 H6            1 RES     
   33462 H6        1111.6026  -873.6991  -771.0771 H6            1 RES     
   33463 H6        1109.8215  -873.6072  -771.1364 H6            1 RES     
   33464 H6        1110.7252  -875.3262  -772.6674 H6            1 RES     
   33465 H6        1109.6191  -876.0308  -771.4520 H6            1 RES     
   33466 H6        1111.5130  -876.9303  -770.1446 H6            1 RES     
   33467 H6        1111.5328  -877.4806  -771.8515 H6            1 RES     
   33468 H6        1113.2608  -875.2136  -770.6513 H6            1 RES     
   33469 H6        1113.3141  -875.7406  -772.3715 H6            1 RES     
   33470 H6        1115.1727  -876.6311  -770.9551 H6            1 RES     
   33471 H6        1113.9798  -877.4508  -769.8835 H6            1 RES     
   33472 H6        1113.2543  -878.8853  -771.8659 H6            1 RES     
   33473 H6        1114.3884  -877.9554  -772.9116 H6            1 RES     
   33474 H6        1116.3284  -878.7925  -771.5810 H6            1 RES     
   33475 H6        1115.3595  -880.1058  -772.3401 H6            1 RES     
   33476 H6        1115.2134  -879.2827  -769.3676 H6            1 RES     
   33477 H6        1114.2113  -880.5600  -770.1717 H6            1 RES     
   33478 H6        1116.0023  -880.7405  -770.0546 H6            1 RES     
   33479 H6        1110.5183  -873.4645  -766.8309 H6            1 RES     
   33480 H6        1109.8036  -873.8841  -765.3983 H6            1 RES     
   33481 H6        1109.2217  -871.6671  -766.7871 H6            1 RES     
   33482 H6        1108.0214  -872.6831  -767.6430 H6            1 RES     
   33483 H6        1108.3157  -872.1266  -764.5684 H6            1 RES     
   33484 H6        1107.0452  -873.1398  -765.2877 H6            1 RES     
   33485 H6        1106.0425  -871.3335  -766.5087 H6            1 RES     
   33486 H6        1106.0662  -871.2149  -764.7085 H6            1 RES     
   33487 H6        1107.8428  -869.6183  -764.6849 H6            1 RES     
   33488 H6        1107.8768  -869.5494  -766.4939 H6            1 RES     
   33489 H6        1105.4711  -868.9119  -766.5446 H6            1 RES     
   33490 H6        1105.3319  -869.0558  -764.7595 H6            1 RES     
   33491 H6        1105.4424  -866.7239  -765.5215 H6            1 RES     
   33492 H6        1107.0847  -866.9905  -766.2188 H6            1 RES     
   33493 H6        1107.9309  -867.5220  -763.8814 H6            1 RES     
   33494 H6        1107.1366  -865.9117  -763.9445 H6            1 RES     
   33495 H6        1106.2504  -867.3157  -763.2442 H6            1 RES     
   33496 C0        1109.9567  -888.5909  -762.2554 C0            1 RES     
   33497 C1        1108.9379  -887.5050  -762.6658 C1            1 RES     
   33498 C1        1107.7651  -888.0343  -763.1012 C1            1 RES     
   33499 S2        1106.6719  -886.8870  -763.6408 S2            1 RES     
   33500 C1        1107.7611  -885.6147  -763.3478 C1            1 RES     
   33501 C1        1108.9648  -886.1106  -762.8350 C1            1 RES     
   33502 C1        1107.8621  -889.4422  -763.0706 C1            1 RES     
   33503 C1        1109.1163  -889.7961  -762.6799 C1            1 RES     
   33504 C1        1109.3289  -891.1669  -762.7644 C1            1 RES     
   33505 C1        1108.1650  -891.8220  -763.2007 C1            1 RES     
   33506 S2        1106.8985  -890.7299  -763.4952 S2            1 RES     
   33507 H3        1109.8066  -885.4689  -762.6568 H3            1 RES     
   33508 H3        1110.2655  -891.6588  -762.5306 H3            1 RES     
   33509 N4        1107.0692  -895.4043  -763.0716 N4            1 RES     
   33510 C1        1107.2081  -894.0857  -762.7456 C1            1 RES     
   33511 C1        1108.0388  -893.2431  -763.5044 C1            1 RES     
   33512 C1        1108.6960  -893.7875  -764.6092 C1            1 RES     
   33513 N4        1109.4796  -893.0724  -765.4565 N4            1 RES     
   33514 S2        1109.9156  -894.2091  -766.5744 S2            1 RES     
   33515 N4        1109.1653  -895.5875  -766.0495 N4            1 RES     
   33516 C1        1108.5199  -895.1550  -764.9382 C1            1 RES     
   33517 C1        1107.7070  -895.9569  -764.1414 C1            1 RES     
   33518 H5        1106.6756  -893.6912  -761.8846 H5            1 RES     
   33519 C0        1110.3407  -888.7612  -760.7433 C0            1 RES     
   33520 C0        1109.5039  -889.3331  -759.5373 C0            1 RES     
   33521 C0        1110.4059  -889.1116  -758.2724 C0            1 RES     
   33522 C0        1109.8707  -889.6458  -756.9381 C0            1 RES     
   33523 C0        1110.8165  -889.3263  -755.7566 C0            1 RES     
   33524 C0        1112.2243  -889.9575  -755.8321 C0            1 RES     
   33525 C0        1112.2403  -891.4865  -756.0052 C0            1 RES     
   33526 C0        1111.4873  -892.2281  -754.8864 C0            1 RES     
   33527 C0        1111.4570  -893.7494  -755.0914 C0            1 RES     
   33528 C0        1112.8427  -894.4050  -754.9672 C0            1 RES     
   33529 C0        1112.7845  -895.9381  -755.0597 C0            1 RES     
   33530 C0        1112.3347  -896.4421  -756.4316 C0            1 RES     
   33531 C0        1108.0393  -888.8355  -759.3081 C0            1 RES     
   33532 C0        1107.7911  -887.3410  -758.9374 C0            1 RES     
   33533 C0        1106.8891  -886.7092  -760.0020 C0            1 RES     
   33534 C0        1106.7744  -885.1878  -760.0330 C0            1 RES     
   33535 C0        1105.8343  -884.5588  -759.0151 C0            1 RES     
   33536 C0        1105.8346  -883.0343  -759.2544 C0            1 RES     
   33537 C0        1104.7920  -882.2685  -758.4367 C0            1 RES     
   33538 C0        1103.3616  -882.5816  -758.8808 C0            1 RES     
   33539 H6        1110.6557  -887.8065  -760.4072 H6            1 RES     
   33540 H6        1111.2383  -889.4198  -760.7624 H6            1 RES     
   33541 H6        1109.4036  -890.4277  -759.7113 H6            1 RES     
   33542 H6        1110.5894  -888.0229  -758.1393 H6            1 RES     
   33543 H6        1111.3869  -889.5954  -758.4674 H6            1 RES     
   33544 H6        1109.6890  -890.7374  -757.0099 H6            1 RES     
   33545 H6        1108.9084  -889.1469  -756.7049 H6            1 RES     
   33546 H6        1110.3238  -889.6606  -754.8202 H6            1 RES     
   33547 H6        1110.9381  -888.2236  -755.6717 H6            1 RES     
   33548 H6        1112.7709  -889.6933  -754.8994 H6            1 RES     
   33549 H6        1112.7915  -889.5077  -756.6748 H6            1 RES     
   33550 H6        1111.7932  -891.7484  -756.9874 H6            1 RES     
   33551 H6        1113.3032  -891.8052  -756.0215 H6            1 RES     
   33552 H6        1110.4294  -891.8953  -754.8854 H6            1 RES     
   33553 H6        1111.9311  -891.9854  -753.8961 H6            1 RES     
   33554 H6        1110.7988  -894.1804  -754.3058 H6            1 RES     
   33555 H6        1111.0030  -893.9637  -756.0817 H6            1 RES     
   33556 H6        1113.5336  -894.0257  -755.7484 H6            1 RES     
   33557 H6        1113.2610  -894.1421  -753.9711 H6            1 RES     
   33558 H6        1112.1063  -896.3378  -754.2745 H6            1 RES     
   33559 H6        1113.8051  -896.3346  -754.8688 H6            1 RES     
   33560 H6        1111.2979  -896.1229  -756.6598 H6            1 RES     
   33561 H6        1113.0189  -896.0650  -757.2212 H6            1 RES     
   33562 H6        1112.3588  -897.5519  -756.4412 H6            1 RES     
   33563 H6        1107.6023  -889.4448  -758.4883 H6            1 RES     
   33564 H6        1107.4281  -889.1400  -760.1846 H6            1 RES     
   33565 H6        1107.2775  -887.2582  -757.9533 H6            1 RES     
   33566 H6        1108.7565  -886.7996  -758.8698 H6            1 RES     
   33567 H6        1105.8914  -887.1940  -760.0509 H6            1 RES     
   33568 H6        1107.3977  -886.9301  -760.9162 H6            1 RES     
   33569 H6        1107.7745  -884.7525  -759.9658 H6            1 RES     
   33570 H6        1106.3694  -884.9247  -761.0367 H6            1 RES     
   33571 H6        1104.8250  -884.9870  -759.1921 H6            1 RES     
   33572 H6        1106.1510  -884.7856  -757.9751 H6            1 RES     
   33573 H6        1106.8469  -882.6468  -758.9989 H6            1 RES     
   33574 H6        1105.6508  -882.8089  -760.3295 H6            1 RES     
   33575 H6        1104.9612  -881.1823  -758.6062 H6            1 RES     
   33576 H6        1104.9205  -882.4794  -757.3542 H6            1 RES     
   33577 H6        1103.1046  -883.6447  -758.7044 H6            1 RES     
   33578 H6        1102.6500  -881.9531  -758.3080 H6            1 RES     
   33579 H6        1103.2385  -882.3530  -759.9631 H6            1 RES     
   33580 C0        1111.2213  -888.3344  -763.1668 C0            1 RES     
   33581 C0        1112.6467  -887.8282  -762.6586 C0            1 RES     
   33582 C0        1113.3659  -887.2088  -763.9042 C0            1 RES     
   33583 C0        1114.8639  -886.8925  -763.7197 C0            1 RES     
   33584 C0        1115.5238  -886.2639  -764.9597 C0            1 RES     
   33585 C0        1115.4898  -887.1173  -766.2401 C0            1 RES     
   33586 C0        1116.0564  -888.5393  -766.0931 C0            1 RES     
   33587 C0        1117.5129  -888.5698  -765.5973 C0            1 RES     
   33588 C0        1118.0625  -889.9980  -765.4508 C0            1 RES     
   33589 C0        1118.2042  -890.7264  -766.7993 C0            1 RES     
   33590 C0        1118.8691  -892.1056  -766.6695 C0            1 RES     
   33591 C0        1118.0306  -893.1074  -765.8755 C0            1 RES     
   33592 C0        1112.8992  -886.9549  -761.3583 C0            1 RES     
   33593 C0        1112.4177  -885.4803  -761.2508 C0            1 RES     
   33594 C0        1111.2036  -885.3268  -760.3172 C0            1 RES     
   33595 C0        1110.6133  -883.9320  -760.1913 C0            1 RES     
   33596 C0        1111.4150  -882.9121  -759.3950 C0            1 RES     
   33597 C0        1110.5379  -881.6501  -759.2648 C0            1 RES     
   33598 C0        1111.1198  -880.5635  -758.3588 C0            1 RES     
   33599 C0        1111.1622  -880.9921  -756.8913 C0            1 RES     
   33600 H6        1110.9020  -887.6971  -764.0240 H6            1 RES     
   33601 H6        1111.4444  -889.2881  -763.6967 H6            1 RES     
   33602 H6        1113.1835  -888.7705  -762.4018 H6            1 RES     
   33603 H6        1112.8410  -886.2745  -764.1989 H6            1 RES     
   33604 H6        1113.2737  -887.9317  -764.7431 H6            1 RES     
   33605 H6        1115.4013  -887.8186  -763.4266 H6            1 RES     
   33606 H6        1115.0024  -886.1383  -762.9210 H6            1 RES     
   33607 H6        1116.5816  -886.0416  -764.7033 H6            1 RES     
   33608 H6        1115.0352  -885.2892  -765.1795 H6            1 RES     
   33609 H6        1116.0618  -886.5759  -767.0251 H6            1 RES     
   33610 H6        1114.4414  -887.1995  -766.5981 H6            1 RES     
   33611 H6        1115.4198  -889.1224  -765.3938 H6            1 RES     
   33612 H6        1115.9854  -889.0150  -767.0924 H6            1 RES     
   33613 H6        1117.5593  -888.1046  -764.5905 H6            1 RES     
   33614 H6        1118.1651  -887.9846  -766.2811 H6            1 RES     
   33615 H6        1119.0712  -889.9245  -764.9892 H6            1 RES     
   33616 H6        1117.4042  -890.5661  -764.7596 H6            1 RES     
   33617 H6        1117.2166  -890.8540  -767.2886 H6            1 RES     
   33618 H6        1118.8453  -890.1047  -767.4616 H6            1 RES     
   33619 H6        1119.8697  -891.9986  -766.1973 H6            1 RES     
   33620 H6        1119.0116  -892.5157  -767.6926 H6            1 RES     
   33621 H6        1117.8972  -892.7789  -764.8250 H6            1 RES     
   33622 H6        1117.0351  -893.2371  -766.3511 H6            1 RES     
   33623 H6        1118.5480  -894.0897  -765.8631 H6            1 RES     
   33624 H6        1113.9995  -886.9099  -761.2624 H6            1 RES     
   33625 H6        1112.7064  -887.5058  -760.4186 H6            1 RES     
   33626 H6        1113.2231  -884.8973  -760.7520 H6            1 RES     
   33627 H6        1112.2622  -885.0393  -762.2562 H6            1 RES     
   33628 H6        1111.4418  -885.7294  -759.3065 H6            1 RES     
   33629 H6        1110.3654  -885.8906  -760.7113 H6            1 RES     
   33630 H6        1110.3496  -883.5407  -761.1979 H6            1 RES     
   33631 H6        1109.6906  -884.0693  -759.6036 H6            1 RES     
   33632 H6        1111.6211  -883.3491  -758.3951 H6            1 RES     
   33633 H6        1112.3766  -882.6766  -759.8969 H6            1 RES     
   33634 H6        1110.3900  -881.2270  -760.2828 H6            1 RES     
   33635 H6        1109.5335  -881.9175  -758.8629 H6            1 RES     
   33636 H6        1110.4477  -879.6801  -758.4285 H6            1 RES     
   33637 H6        1112.1284  -880.2710  -758.7125 H6            1 RES     
   33638 H6        1111.8489  -881.8483  -756.7387 H6            1 RES     
   33639 H6        1111.5214  -880.1445  -756.2724 H6            1 RES     
   33640 H6        1110.1444  -881.2748  -756.5431 H6            1 RES     
   33641 C0        1108.3515  -901.3530  -764.3532 C0            1 RES     
   33642 C1        1107.8436  -899.8998  -764.4791 C1            1 RES     
   33643 C1        1106.8502  -899.7768  -765.3973 C1            1 RES     
   33644 S2        1106.3402  -898.1987  -765.6249 S2            1 RES     
   33645 C1        1107.4794  -897.5999  -764.5139 C1            1 RES     
   33646 C1        1108.2429  -898.6466  -763.9854 C1            1 RES     
   33647 C1        1106.6128  -901.0392  -765.9828 C1            1 RES     
   33648 C1        1107.5008  -901.9395  -765.4808 C1            1 RES     
   33649 C1        1107.4200  -903.1723  -766.1172 C1            1 RES     
   33650 C1        1106.4071  -903.1610  -767.0908 C1            1 RES     
   33651 S2        1105.6340  -901.6517  -767.1800 S2            1 RES     
   33652 H3        1109.0667  -898.4623  -763.3223 H3            1 RES     
   33653 H3        1108.0555  -904.0211  -765.8948 H3            1 RES     
   33654 N4        1104.5845  -905.8987  -768.8889 N4            1 RES     
   33655 C1        1104.8727  -904.9232  -767.9782 C1            1 RES     
   33656 C1        1106.0987  -904.2373  -768.0257 C1            1 RES     
   33657 C1        1106.9983  -904.5664  -769.0412 C1            1 RES     
   33658 N4        1108.1888  -903.9427  -769.2343 N4            1 RES     
   33659 S2        1108.7647  -904.6979  -770.5871 S2            1 RES     
   33660 N4        1107.5836  -905.7953  -770.9601 N4            1 RES     
   33661 C1        1106.6672  -905.5694  -769.9865 C1            1 RES     
   33662 C1        1105.4512  -906.2399  -769.8835 C1            1 RES     
   33663 H5        1104.1469  -904.6850  -767.2054 H5            1 RES     
   33664 C0        1108.0633  -902.1637  -763.0407 C0            1 RES     
   33665 C0        1106.7163  -902.7681  -762.4910 C0            1 RES     
   33666 C0        1107.0744  -903.3445  -761.0761 C0            1 RES     
   33667 C0        1105.9546  -904.0712  -760.3209 C0            1 RES     
   33668 C0        1106.4061  -904.5503  -758.9211 C0            1 RES     
   33669 C0        1107.5527  -905.5852  -758.9017 C0            1 RES     
   33670 C0        1107.2962  -906.8520  -759.7368 C0            1 RES     
   33671 C0        1106.0207  -907.6036  -759.3163 C0            1 RES     
   33672 C0        1105.7369  -908.8358  -760.1873 C0            1 RES     
   33673 C0        1106.7800  -909.9528  -760.0144 C0            1 RES     
   33674 C0        1106.4247  -911.2238  -760.8022 C0            1 RES     
   33675 C0        1106.4498  -911.0201  -762.3175 C0            1 RES     
   33676 C0        1105.4292  -901.8809  -762.4548 C0            1 RES     
   33677 C0        1105.3932  -900.6271  -761.5278 C0            1 RES     
   33678 C0        1105.1457  -899.3828  -762.3860 C0            1 RES     
   33679 C0        1105.3926  -898.0158  -761.7542 C0            1 RES     
   33680 C0        1104.2933  -897.4800  -760.8487 C0            1 RES     
   33681 C0        1104.7251  -896.0804  -760.3629 C0            1 RES     
   33682 C0        1103.6432  -895.3196  -759.5929 C0            1 RES     
   33683 C0        1102.4712  -894.9125  -760.4885 C0            1 RES     
   33684 H6        1108.4241  -901.5705  -762.2396 H6            1 RES     
   33685 H6        1108.7261  -903.0548  -763.1195 H6            1 RES     
   33686 H6        1106.4525  -903.6168  -763.1609 H6            1 RES     
   33687 H6        1107.4271  -902.5173  -760.4220 H6            1 RES     
   33688 H6        1107.9194  -904.0545  -761.2039 H6            1 RES     
   33689 H6        1105.5787  -904.9228  -760.9237 H6            1 RES     
   33690 H6        1105.1146  -903.3684  -760.1489 H6            1 RES     
   33691 H6        1105.5248  -904.9823  -758.4036 H6            1 RES     
   33692 H6        1106.7257  -903.6717  -758.3180 H6            1 RES     
   33693 H6        1107.7332  -905.8797  -757.8438 H6            1 RES     
   33694 H6        1108.4894  -905.1131  -759.2677 H6            1 RES     
   33695 H6        1107.2244  -906.5749  -760.8098 H6            1 RES     
   33696 H6        1108.1808  -907.5112  -759.6161 H6            1 RES     
   33697 H6        1105.1495  -906.9290  -759.4424 H6            1 RES     
   33698 H6        1106.0820  -907.8990  -758.2459 H6            1 RES     
   33699 H6        1104.7456  -909.2387  -759.8853 H6            1 RES     
   33700 H6        1105.6728  -908.5122  -761.2474 H6            1 RES     
   33701 H6        1107.7874  -909.6081  -760.3274 H6            1 RES     
   33702 H6        1106.8209  -910.2233  -758.9367 H6            1 RES     
   33703 H6        1105.4226  -911.5921  -760.4917 H6            1 RES     
   33704 H6        1107.1730  -912.0062  -760.5510 H6            1 RES     
   33705 H6        1105.6845  -910.2856  -762.6396 H6            1 RES     
   33706 H6        1107.4540  -910.6720  -762.6405 H6            1 RES     
   33707 H6        1106.2292  -911.9843  -762.8214 H6            1 RES     
   33708 H6        1104.5823  -902.5306  -762.1463 H6            1 RES     
   33709 H6        1105.1600  -901.6170  -763.5000 H6            1 RES     
   33710 H6        1104.5669  -900.7077  -760.7863 H6            1 RES     
   33711 H6        1106.3485  -900.5365  -760.9720 H6            1 RES     
   33712 H6        1104.1668  -899.4192  -762.9088 H6            1 RES     
   33713 H6        1105.9095  -899.4438  -763.1317 H6            1 RES     
   33714 H6        1106.3554  -898.0294  -761.2377 H6            1 RES     
   33715 H6        1105.4831  -897.2932  -762.5970 H6            1 RES     
   33716 H6        1103.3668  -897.4189  -761.4581 H6            1 RES     
   33717 H6        1104.1176  -898.1515  -759.9819 H6            1 RES     
   33718 H6        1105.6145  -896.2048  -759.7042 H6            1 RES     
   33719 H6        1105.0329  -895.4466  -761.2255 H6            1 RES     
   33720 H6        1104.1015  -894.3847  -759.2017 H6            1 RES     
   33721 H6        1103.2864  -895.9232  -758.7320 H6            1 RES     
   33722 H6        1101.9370  -895.7977  -760.8864 H6            1 RES     
   33723 H6        1101.7504  -894.3069  -759.9026 H6            1 RES     
   33724 H6        1102.8366  -894.2958  -761.3398 H6            1 RES     
   33725 C0        1109.8949  -901.2797  -764.6822 C0            1 RES     
   33726 C0        1111.0801  -901.5403  -763.6461 C0            1 RES     
   33727 C0        1112.3481  -900.8380  -764.2389 C0            1 RES     
   33728 C0        1113.6831  -901.1773  -763.5456 C0            1 RES     
   33729 C0        1114.8980  -900.4473  -764.1450 C0            1 RES     
   33730 C0        1115.1810  -900.7294  -765.6313 C0            1 RES     
   33731 C0        1115.3141  -902.2162  -766.0006 C0            1 RES     
   33732 C0        1116.4131  -902.9476  -765.2098 C0            1 RES     
   33733 C0        1116.5297  -904.4333  -765.5869 C0            1 RES     
   33734 C0        1117.0240  -904.6482  -767.0286 C0            1 RES     
   33735 C0        1117.2611  -906.1281  -767.3676 C0            1 RES     
   33736 C0        1115.9790  -906.9608  -767.3639 C0            1 RES     
   33737 C0        1110.9888  -901.3280  -762.0766 C0            1 RES     
   33738 C0        1110.8435  -899.9149  -761.4440 C0            1 RES     
   33739 C0        1109.4273  -899.6603  -760.8974 C0            1 RES     
   33740 C0        1109.1599  -898.2826  -760.3139 C0            1 RES     
   33741 C0        1109.7892  -897.9707  -758.9634 C0            1 RES     
   33742 C0        1109.2347  -896.6041  -758.5116 C0            1 RES     
   33743 C0        1109.6394  -896.1920  -757.0951 C0            1 RES     
   33744 C0        1109.0064  -897.0852  -756.0271 C0            1 RES     
   33745 H6        1110.0874  -900.3157  -765.2083 H6            1 RES     
   33746 H6        1110.0907  -902.0020  -765.5068 H6            1 RES     
   33747 H6        1111.2498  -902.6397  -763.7128 H6            1 RES     
   33748 H6        1112.2022  -899.7367  -764.2051 H6            1 RES     
   33749 H6        1112.4348  -901.1386  -765.3052 H6            1 RES     
   33750 H6        1113.8427  -902.2756  -763.5737 H6            1 RES     
   33751 H6        1113.6605  -900.8527  -762.4873 H6            1 RES     
   33752 H6        1115.7910  -900.7315  -763.5483 H6            1 RES     
   33753 H6        1114.7640  -899.3504  -764.0195 H6            1 RES     
   33754 H6        1116.1196  -900.1998  -765.9054 H6            1 RES     
   33755 H6        1114.3673  -900.2925  -766.2487 H6            1 RES     
   33756 H6        1114.3422  -902.7285  -765.8354 H6            1 RES     
   33757 H6        1115.5374  -902.2555  -767.0863 H6            1 RES     
   33758 H6        1116.1625  -902.9108  -764.1290 H6            1 RES     
   33759 H6        1117.3933  -902.4445  -765.3568 H6            1 RES     
   33760 H6        1117.2654  -904.8990  -764.8955 H6            1 RES     
   33761 H6        1115.5451  -904.9219  -765.4275 H6            1 RES     
   33762 H6        1116.3061  -904.2275  -767.7625 H6            1 RES     
   33763 H6        1117.9940  -904.1170  -767.1437 H6            1 RES     
   33764 H6        1117.9928  -906.5655  -766.6541 H6            1 RES     
   33765 H6        1117.6989  -906.1808  -768.3877 H6            1 RES     
   33766 H6        1115.5205  -906.9914  -766.3550 H6            1 RES     
   33767 H6        1115.2483  -906.5438  -768.0892 H6            1 RES     
   33768 H6        1116.2185  -908.0032  -767.6620 H6            1 RES     
   33769 H6        1111.9434  -901.7253  -761.6857 H6            1 RES     
   33770 H6        1110.3259  -902.0581  -761.5754 H6            1 RES     
   33771 H6        1111.4959  -899.8787  -760.5439 H6            1 RES     
   33772 H6        1111.1969  -899.1294  -762.1422 H6            1 RES     
   33773 H6        1109.1542  -900.4448  -760.1556 H6            1 RES     
   33774 H6        1108.7088  -899.7040  -761.7082 H6            1 RES     
   33775 H6        1109.4062  -897.5000  -761.0640 H6            1 RES     
   33776 H6        1108.0753  -898.2664  -760.1172 H6            1 RES     
   33777 H6        1109.4840  -898.7694  -758.2548 H6            1 RES     
   33778 H6        1110.8967  -897.9459  -759.0324 H6            1 RES     
   33779 H6        1109.5959  -895.8325  -759.2267 H6            1 RES     
   33780 H6        1108.1211  -896.6061  -758.5536 H6            1 RES     
   33781 H6        1109.2625  -895.1585  -756.9312 H6            1 RES     
   33782 H6        1110.7433  -896.1865  -756.9997 H6            1 RES     
   33783 H6        1109.3699  -898.1291  -756.1042 H6            1 RES     
   33784 H6        1109.2721  -896.6985  -755.0219 H6            1 RES     
   33785 H6        1107.8986  -897.0768  -756.1252 H6            1 RES     
   33786 C0        1104.9141  -911.0642  -772.3362 C0            1 RES     
   33787 C1        1104.8321  -909.5792  -771.9193 C1            1 RES     
   33788 C1        1104.3327  -908.7915  -772.9069 C1            1 RES     
   33789 S2        1104.3164  -907.1627  -772.5208 S2            1 RES     
   33790 C1        1105.0302  -907.4470  -771.0040 C1            1 RES     
   33791 C1        1105.2725  -908.8136  -770.8268 C1            1 RES     
   33792 C1        1104.0709  -909.5926  -774.0393 C1            1 RES     
   33793 C1        1104.4672  -910.8692  -773.7858 C1            1 RES     
   33794 C1        1104.3717  -911.6845  -774.9071 C1            1 RES     
   33795 C1        1103.8519  -910.9670  -775.9977 C1            1 RES     
   33796 S2        1103.5311  -909.3492  -775.5937 S2            1 RES     
   33797 H3        1105.7885  -909.1854  -769.9620 H3            1 RES     
   33798 H3        1104.6636  -912.7275  -774.9349 H3            1 RES     
   33799 N4        1102.3238  -912.0426  -779.2470 N4            1 RES     
   33800 C1        1102.4399  -911.6204  -777.9538 C1            1 RES     
   33801 C1        1103.7049  -911.4606  -777.3624 C1            1 RES     
   33802 C1        1104.8336  -911.7233  -778.1408 C1            1 RES     
   33803 N4        1106.1103  -911.5540  -777.7109 N4            1 RES     
   33804 S2        1106.9880  -911.9496  -779.0545 S2            1 RES     
   33805 N4        1105.8368  -912.3358  -780.1788 N4            1 RES     
   33806 C1        1104.6867  -912.1416  -779.4872 C1            1 RES     
   33807 C1        1103.4122  -912.3110  -780.0217 C1            1 RES     
   33808 H5        1101.5415  -911.4159  -777.3778 H5            1 RES     
   33809 C0        1103.9623  -912.1126  -771.6599 C0            1 RES     
   33810 C0        1102.4102  -912.3314  -771.8182 C0            1 RES     
   33811 C0        1102.0469  -913.4497  -770.7790 C0            1 RES     
   33812 C0        1100.5899  -913.9283  -770.7579 C0            1 RES     
   33813 C0        1100.3377  -914.9916  -769.6631 C0            1 RES     
   33814 C0        1101.1243  -916.3123  -769.8139 C0            1 RES     
   33815 C0        1100.9423  -917.0239  -771.1662 C0            1 RES     
   33816 C0        1099.4721  -917.3513  -771.4824 C0            1 RES     
   33817 C0        1099.2876  -918.0107  -772.8567 C0            1 RES     
   33818 C0        1099.9035  -919.4175  -772.9410 C0            1 RES     
   33819 C0        1099.6138  -920.1129  -774.2807 C0            1 RES     
   33820 C0        1100.2759  -919.4222  -775.4735 C0            1 RES     
   33821 C0        1101.4435  -911.1059  -771.7236 C0            1 RES     
   33822 C0        1101.3254  -910.3302  -770.3757 C0            1 RES     
   33823 C0        1101.7168  -908.8678  -770.6091 C0            1 RES     
   33824 C0        1101.9922  -907.9958  -769.3874 C0            1 RES     
   33825 C0        1100.7742  -907.4434  -768.6616 C0            1 RES     
   33826 C0        1101.2792  -906.5605  -767.5011 C0            1 RES     
   33827 C0        1100.1798  -905.7732  -766.7844 C0            1 RES     
   33828 C0        1099.5751  -904.6825  -767.6710 C0            1 RES     
   33829 H6        1104.1014  -912.0094  -770.6141 H6            1 RES     
   33830 H6        1104.3875  -913.0980  -771.9563 H6            1 RES     
   33831 H6        1102.2495  -912.7362  -772.8423 H6            1 RES     
   33832 H6        1102.2884  -913.0905  -769.7547 H6            1 RES     
   33833 H6        1102.6941  -914.3284  -770.9874 H6            1 RES     
   33834 H6        1100.3022  -914.3179  -771.7555 H6            1 RES     
   33835 H6        1099.9283  -913.0729  -770.5137 H6            1 RES     
   33836 H6        1099.2521  -915.2208  -769.6486 H6            1 RES     
   33837 H6        1100.5809  -914.5582  -768.6677 H6            1 RES     
   33838 H6        1100.8051  -916.9987  -768.9982 H6            1 RES     
   33839 H6        1102.2087  -916.1211  -769.6666 H6            1 RES     
   33840 H6        1101.3606  -916.3873  -771.9741 H6            1 RES     
   33841 H6        1101.5386  -917.9592  -771.1293 H6            1 RES     
   33842 H6        1098.8934  -916.4058  -771.5132 H6            1 RES     
   33843 H6        1099.0415  -917.9990  -770.6876 H6            1 RES     
   33844 H6        1098.1948  -918.0999  -773.0416 H6            1 RES     
   33845 H6        1099.7179  -917.3411  -773.6306 H6            1 RES     
   33846 H6        1101.0019  -919.3806  -772.7876 H6            1 RES     
   33847 H6        1099.4572  -920.0387  -772.1341 H6            1 RES     
   33848 H6        1098.5157  -920.1713  -774.4456 H6            1 RES     
   33849 H6        1100.0099  -921.1498  -774.2243 H6            1 RES     
   33850 H6        1099.8818  -918.3959  -775.6165 H6            1 RES     
   33851 H6        1101.3762  -919.3777  -775.3279 H6            1 RES     
   33852 H6        1100.0630  -920.0001  -776.3972 H6            1 RES     
   33853 H6        1100.4225  -911.4635  -771.9768 H6            1 RES     
   33854 H6        1101.6717  -910.4179  -772.5657 H6            1 RES     
   33855 H6        1100.2790  -910.3534  -769.9969 H6            1 RES     
   33856 H6        1101.9802  -910.7941  -769.6103 H6            1 RES     
   33857 H6        1101.0400  -908.3599  -771.3280 H6            1 RES     
   33858 H6        1102.6778  -908.9426  -771.0720 H6            1 RES     
   33859 H6        1102.6461  -908.5390  -768.7007 H6            1 RES     
   33860 H6        1102.5638  -907.1134  -769.7551 H6            1 RES     
   33861 H6        1100.1998  -906.8405  -769.3965 H6            1 RES     
   33862 H6        1100.1286  -908.2588  -768.2726 H6            1 RES     
   33863 H6        1101.7872  -907.2215  -766.7626 H6            1 RES     
   33864 H6        1102.0329  -905.8275  -767.8688 H6            1 RES     
   33865 H6        1100.6425  -905.2687  -765.9078 H6            1 RES     
   33866 H6        1099.3898  -906.4615  -766.4173 H6            1 RES     
   33867 H6        1099.0583  -905.1138  -768.5508 H6            1 RES     
   33868 H6        1098.8359  -904.0978  -767.0867 H6            1 RES     
   33869 H6        1100.3721  -903.9892  -768.0218 H6            1 RES     
   33870 C0        1106.4373  -911.4524  -772.1786 C0            1 RES     
   33871 C0        1107.0311  -912.4700  -771.1024 C0            1 RES     
   33872 C0        1108.5512  -912.1230  -770.9572 C0            1 RES     
   33873 C0        1109.3958  -913.1449  -770.1696 C0            1 RES     
   33874 C0        1110.8773  -912.7521  -770.0315 C0            1 RES     
   33875 C0        1111.6507  -912.5856  -771.3518 C0            1 RES     
   33876 C0        1111.5850  -913.7910  -772.3043 C0            1 RES     
   33877 C0        1112.0937  -915.0989  -771.6727 C0            1 RES     
   33878 C0        1112.0166  -916.2947  -772.6357 C0            1 RES     
   33879 C0        1112.9760  -916.1629  -773.8321 C0            1 RES     
   33880 C0        1112.9927  -917.4109  -774.7284 C0            1 RES     
   33881 C0        1111.6623  -917.6619  -775.4384 C0            1 RES     
   33882 C0        1106.3807  -912.7958  -769.6925 C0            1 RES     
   33883 C0        1106.3159  -911.7406  -768.5522 C0            1 RES     
   33884 C0        1104.8935  -911.1909  -768.3426 C0            1 RES     
   33885 C0        1104.7312  -910.1046  -767.2921 C0            1 RES     
   33886 C0        1104.8321  -910.5326  -765.8348 C0            1 RES     
   33887 C0        1104.4626  -909.3052  -764.9769 C0            1 RES     
   33888 C0        1104.3594  -909.5872  -763.4769 C0            1 RES     
   33889 C0        1103.1774  -910.4961  -763.1368 C0            1 RES     
   33890 H6        1107.0291  -910.5084  -772.1403 H6            1 RES     
   33891 H6        1106.7756  -911.8630  -773.1568 H6            1 RES     
   33892 H6        1106.9651  -913.4589  -771.6121 H6            1 RES     
   33893 H6        1108.6517  -911.1298  -770.4685 H6            1 RES     
   33894 H6        1108.9804  -912.0457  -771.9793 H6            1 RES     
   33895 H6        1109.3059  -914.1424  -770.6486 H6            1 RES     
   33896 H6        1109.0323  -913.2221  -769.1266 H6            1 RES     
   33897 H6        1111.3774  -913.5311  -769.4172 H6            1 RES     
   33898 H6        1110.9515  -911.7988  -769.4634 H6            1 RES     
   33899 H6        1112.7135  -912.3772  -771.0995 H6            1 RES     
   33900 H6        1111.2633  -911.6966  -771.8937 H6            1 RES     
   33901 H6        1110.5390  -913.9346  -772.6502 H6            1 RES     
   33902 H6        1112.2016  -913.5314  -773.1888 H6            1 RES     
   33903 H6        1111.4541  -915.3490  -770.8007 H6            1 RES     
   33904 H6        1113.1379  -914.9726  -771.3133 H6            1 RES     
   33905 H6        1112.2990  -917.2055  -772.0641 H6            1 RES     
   33906 H6        1110.9668  -916.4111  -772.9792 H6            1 RES     
   33907 H6        1112.7163  -915.2827  -774.4557 H6            1 RES     
   33908 H6        1114.0048  -916.0196  -773.4354 H6            1 RES     
   33909 H6        1113.2691  -918.3036  -774.1262 H6            1 RES     
   33910 H6        1113.7722  -917.2642  -775.5068 H6            1 RES     
   33911 H6        1110.8503  -917.8692  -774.7125 H6            1 RES     
   33912 H6        1111.3869  -916.7831  -776.0596 H6            1 RES     
   33913 H6        1111.7621  -918.5470  -776.1012 H6            1 RES     
   33914 H6        1106.9916  -913.6240  -769.2887 H6            1 RES     
   33915 H6        1105.4305  -913.3570  -769.7695 H6            1 RES     
   33916 H6        1106.5532  -912.2597  -767.5974 H6            1 RES     
   33917 H6        1107.0794  -910.9501  -768.6992 H6            1 RES     
   33918 H6        1104.1849  -912.0250  -768.1369 H6            1 RES     
   33919 H6        1104.5606  -910.6850  -769.2420 H6            1 RES     
   33920 H6        1105.4187  -909.2593  -767.5128 H6            1 RES     
   33921 H6        1103.6892  -909.7612  -767.4017 H6            1 RES     
   33922 H6        1104.1047  -911.3558  -765.6723 H6            1 RES     
   33923 H6        1105.8534  -910.8931  -765.5919 H6            1 RES     
   33924 H6        1105.2365  -908.5237  -765.1426 H6            1 RES     
   33925 H6        1103.4845  -908.8843  -765.3058 H6            1 RES     
   33926 H6        1104.1876  -908.6130  -762.9686 H6            1 RES     
   33927 H6        1105.3087  -910.0198  -763.1036 H6            1 RES     
   33928 H6        1103.3009  -911.5044  -763.5795 H6            1 RES     
   33929 H6        1103.1058  -910.6070  -762.0354 H6            1 RES     
   33930 H6        1102.2288  -910.0491  -763.5073 H6            1 RES     
   33931 C0        1102.8263  -915.4336  -784.4358 C0            1 RES     
   33932 C1        1102.9185  -914.2649  -783.4301 C1            1 RES     
   33933 C1        1103.0347  -913.0600  -784.0465 C1            1 RES     
   33934 S2        1103.2295  -911.7805  -782.9848 S2            1 RES     
   33935 C1        1103.2086  -912.8121  -781.6333 C1            1 RES     
   33936 C1        1103.0526  -914.1426  -782.0370 C1            1 RES     
   33937 C1        1103.0678  -913.2646  -785.4429 C1            1 RES     
   33938 C1        1103.0393  -914.6002  -785.7004 C1            1 RES     
   33939 C1        1103.2134  -914.8819  -787.0500 C1            1 RES     
   33940 C1        1103.3362  -913.6945  -787.7913 C1            1 RES     
   33941 S2        1103.2497  -912.3192  -786.7992 S2            1 RES     
   33942 H3        1103.0916  -914.9519  -781.3328 H3            1 RES     
   33943 H3        1103.2538  -915.8802  -787.4690 H3            1 RES     
   33944 N4        1103.0088  -912.9404  -791.4484 N4            1 RES     
   33945 C1        1102.6985  -913.0653  -790.1247 C1            1 RES     
   33946 C1        1103.6312  -913.5952  -789.2164 C1            1 RES     
   33947 C1        1104.8860  -913.9665  -789.7026 C1            1 RES     
   33948 N4        1105.8946  -914.4366  -788.9246 N4            1 RES     
   33949 S2        1107.1176  -914.6353  -790.0185 S2            1 RES     
   33950 N4        1106.4455  -914.1585  -791.4536 N4            1 RES     
   33951 C1        1105.1905  -913.8086  -791.0779 C1            1 RES     
   33952 C1        1104.2249  -913.3031  -791.9445 C1            1 RES     
   33953 H5        1101.7158  -912.7587  -789.7769 H5            1 RES     
   33954 C0        1101.4789  -916.2244  -784.5834 C0            1 RES     
   33955 C0        1100.1069  -915.7900  -785.2244 C0            1 RES     
   33956 C0        1099.1271  -916.9823  -784.9399 C0            1 RES     
   33957 C0        1097.7121  -916.8693  -785.5207 C0            1 RES     
   33958 C0        1096.8218  -918.0739  -785.1348 C0            1 RES     
   33959 C0        1097.2906  -919.4509  -785.6545 C0            1 RES     
   33960 C0        1097.5011  -919.5314  -787.1768 C0            1 RES     
   33961 C0        1096.2401  -919.1662  -787.9801 C0            1 RES     
   33962 C0        1096.4685  -919.1930  -789.4982 C0            1 RES     
   33963 C0        1096.7398  -920.6048  -790.0450 C0            1 RES     
   33964 C0        1096.8528  -920.6362  -791.5775 C0            1 RES     
   33965 C0        1098.0649  -919.8697  -792.1080 C0            1 RES     
   33966 C0        1099.4784  -914.4100  -784.8430 C0            1 RES     
   33967 C0        1099.0159  -914.1626  -783.3741 C0            1 RES     
   33968 C0        1099.7810  -912.9621  -782.8088 C0            1 RES     
   33969 C0        1099.7406  -912.7321  -781.3008 C0            1 RES     
   33970 C0        1098.4909  -912.0596  -780.7517 C0            1 RES     
   33971 C0        1098.6819  -911.8833  -779.2306 C0            1 RES     
   33972 C0        1097.5938  -911.0481  -778.5520 C0            1 RES     
   33973 C0        1097.6434  -909.5778  -778.9729 C0            1 RES     
   33974 H6        1101.2156  -916.5478  -783.6088 H6            1 RES     
   33975 H6        1101.7565  -917.1290  -785.1703 H6            1 RES     
   33976 H6        1100.2756  -915.7268  -786.3227 H6            1 RES     
   33977 H6        1099.0204  -917.1147  -783.8410 H6            1 RES     
   33978 H6        1099.5920  -917.9064  -785.3453 H6            1 RES     
   33979 H6        1097.7604  -916.7555  -786.6228 H6            1 RES     
   33980 H6        1097.2152  -915.9723  -785.0992 H6            1 RES     
   33981 H6        1095.7962  -917.8792  -785.5110 H6            1 RES     
   33982 H6        1096.7444  -918.1328  -784.0264 H6            1 RES     
   33983 H6        1096.5335  -920.2089  -785.3535 H6            1 RES     
   33984 H6        1098.2432  -919.7340  -785.1579 H6            1 RES     
   33985 H6        1098.3326  -918.8553  -787.4677 H6            1 RES     
   33986 H6        1097.8118  -920.5705  -787.4121 H6            1 RES     
   33987 H6        1095.9451  -918.1267  -787.7304 H6            1 RES     
   33988 H6        1095.4003  -919.8428  -787.7087 H6            1 RES     
   33989 H6        1095.5458  -918.8058  -789.9829 H6            1 RES     
   33990 H6        1097.3048  -918.5047  -789.7421 H6            1 RES     
   33991 H6        1097.6684  -921.0284  -789.6093 H6            1 RES     
   33992 H6        1095.8871  -921.2570  -789.7554 H6            1 RES     
   33993 H6        1095.9243  -920.2274  -792.0325 H6            1 RES     
   33994 H6        1096.9545  -921.6965  -791.8946 H6            1 RES     
   33995 H6        1097.9966  -918.7893  -791.8690 H6            1 RES     
   33996 H6        1098.9999  -920.2847  -791.6750 H6            1 RES     
   33997 H6        1098.1093  -919.9715  -793.2125 H6            1 RES     
   33998 H6        1098.5870  -914.2573  -785.4885 H6            1 RES     
   33999 H6        1100.1650  -913.6081  -785.1896 H6            1 RES     
   34000 H6        1097.9280  -913.9303  -783.3363 H6            1 RES     
   34001 H6        1099.1974  -915.0679  -782.7599 H6            1 RES     
   34002 H6        1099.5713  -912.0268  -783.3694 H6            1 RES     
   34003 H6        1100.8039  -913.2187  -782.9851 H6            1 RES     
   34004 H6        1099.9346  -913.6783  -780.7897 H6            1 RES     
   34005 H6        1100.5907  -912.0522  -781.0649 H6            1 RES     
   34006 H6        1098.4000  -911.0743  -781.2560 H6            1 RES     
   34007 H6        1097.5812  -912.6620  -780.9585 H6            1 RES     
   34008 H6        1098.6992  -912.8957  -778.7670 H6            1 RES     
   34009 H6        1099.6615  -911.3990  -779.0147 H6            1 RES     
   34010 H6        1097.7746  -911.0849  -777.4552 H6            1 RES     
   34011 H6        1096.5919  -911.4803  -778.7578 H6            1 RES     
   34012 H6        1097.4317  -909.4569  -780.0536 H6            1 RES     
   34013 H6        1096.8838  -909.0040  -778.4043 H6            1 RES     
   34014 H6        1098.6461  -909.1496  -778.7492 H6            1 RES     
   34015 C0        1104.0382  -916.3815  -784.0774 C0            1 RES     
   34016 C0        1103.9206  -917.8502  -783.4648 C0            1 RES     
   34017 C0        1105.2976  -918.1575  -782.7852 C0            1 RES     
   34018 C0        1105.5161  -919.6220  -782.3546 C0            1 RES     
   34019 C0        1106.8715  -919.8733  -781.6706 C0            1 RES     
   34020 C0        1108.1168  -919.5562  -782.5176 C0            1 RES     
   34021 C0        1108.1648  -920.2441  -783.8921 C0            1 RES     
   34022 C0        1108.0814  -921.7787  -783.8121 C0            1 RES     
   34023 C0        1108.1256  -922.4505  -785.1941 C0            1 RES     
   34024 C0        1109.4806  -922.2744  -785.9025 C0            1 RES     
   34025 C0        1109.5707  -923.0488  -787.2267 C0            1 RES     
   34026 C0        1108.6060  -922.5327  -788.2944 C0            1 RES     
   34027 C0        1102.7146  -918.3809  -782.5811 C0            1 RES     
   34028 C0        1102.4430  -917.8399  -781.1487 C0            1 RES     
   34029 C0        1101.2128  -916.9163  -781.0945 C0            1 RES     
   34030 C0        1100.8964  -916.2817  -779.7503 C0            1 RES     
   34031 C0        1100.3199  -917.1922  -778.6753 C0            1 RES     
   34032 C0        1099.9253  -916.2932  -777.4858 C0            1 RES     
   34033 C0        1099.1822  -917.0176  -776.3619 C0            1 RES     
   34034 C0        1097.7921  -917.4874  -776.7933 C0            1 RES     
   34035 H6        1104.7607  -915.7961  -783.4625 H6            1 RES     
   34036 H6        1104.6331  -916.5219  -785.0082 H6            1 RES     
   34037 H6        1103.8426  -918.5041  -784.3639 H6            1 RES     
   34038 H6        1105.4156  -917.5054  -781.8930 H6            1 RES     
   34039 H6        1106.0989  -917.8946  -783.5088 H6            1 RES     
   34040 H6        1105.4028  -920.2852  -783.2378 H6            1 RES     
   34041 H6        1104.7652  -919.9162  -781.5959 H6            1 RES     
   34042 H6        1106.9043  -920.9418  -781.3682 H6            1 RES     
   34043 H6        1106.9260  -919.2734  -780.7356 H6            1 RES     
   34044 H6        1109.0128  -919.8528  -781.9295 H6            1 RES     
   34045 H6        1108.1806  -918.4590  -782.6790 H6            1 RES     
   34046 H6        1107.3350  -919.8654  -784.5263 H6            1 RES     
   34047 H6        1109.1199  -919.9400  -784.3668 H6            1 RES     
   34048 H6        1107.1128  -922.0619  -783.3497 H6            1 RES     
   34049 H6        1108.9005  -922.1764  -783.1746 H6            1 RES     
   34050 H6        1107.9515  -923.5384  -785.0448 H6            1 RES     
   34051 H6        1107.2973  -922.0476  -785.8150 H6            1 RES     
   34052 H6        1109.6885  -921.2033  -786.1039 H6            1 RES     
   34053 H6        1110.2751  -922.6647  -785.2296 H6            1 RES     
   34054 H6        1109.3834  -924.1294  -787.0447 H6            1 RES     
   34055 H6        1110.6046  -922.9384  -787.6193 H6            1 RES     
   34056 H6        1107.5504  -922.6652  -787.9825 H6            1 RES     
   34057 H6        1108.7986  -921.4578  -788.4985 H6            1 RES     
   34058 H6        1108.7591  -923.1046  -789.2336 H6            1 RES     
   34059 H6        1102.9180  -919.4597  -782.4513 H6            1 RES     
   34060 H6        1101.7722  -918.4909  -783.1499 H6            1 RES     
   34061 H6        1102.1652  -918.7053  -780.5075 H6            1 RES     
   34062 H6        1103.3575  -917.3858  -780.7161 H6            1 RES     
   34063 H6        1100.3147  -917.4484  -781.4825 H6            1 RES     
   34064 H6        1101.3806  -916.0464  -781.7196 H6            1 RES     
   34065 H6        1101.7840  -915.7271  -779.3756 H6            1 RES     
   34066 H6        1100.0853  -915.5655  -779.9617 H6            1 RES     
   34067 H6        1099.4243  -917.6930  -779.1001 H6            1 RES     
   34068 H6        1101.0564  -917.9618  -778.3635 H6            1 RES     
   34069 H6        1100.8544  -915.8444  -777.0704 H6            1 RES     
   34070 H6        1099.2744  -915.4576  -777.8323 H6            1 RES     
   34071 H6        1099.0451  -916.2889  -775.5330 H6            1 RES     
   34072 H6        1099.7873  -917.8683  -775.9904 H6            1 RES     
   34073 H6        1097.8526  -918.2506  -777.5944 H6            1 RES     
   34074 H6        1097.2714  -917.9377  -775.9235 H6            1 RES     
   34075 H6        1097.1897  -916.6256  -777.1558 H6            1 RES     
   34076 C0        1104.7420  -914.2597  -797.2733 C0            1 RES     
   34077 C1        1104.6886  -913.6316  -795.8632 C1            1 RES     
   34078 C1        1105.3012  -912.4203  -795.8130 C1            1 RES     
   34079 S2        1105.3420  -911.7534  -794.2780 S2            1 RES     
   34080 C1        1104.5644  -913.1041  -793.5983 C1            1 RES     
   34081 C1        1104.2888  -914.0568  -794.5853 C1            1 RES     
   34082 C1        1105.8333  -912.1263  -797.0870 C1            1 RES     
   34083 C1        1105.6130  -913.1806  -797.9182 C1            1 RES     
   34084 C1        1106.2355  -913.0210  -799.1504 C1            1 RES     
   34085 C1        1106.8991  -911.7840  -799.2128 C1            1 RES     
   34086 S2        1106.7374  -910.9073  -797.7676 S2            1 RES     
   34087 H3        1103.8680  -915.0136  -794.3410 H3            1 RES     
   34088 H3        1106.2148  -913.7534  -799.9486 H3            1 RES     
   34089 N4        1108.2088  -909.7481  -802.0746 N4            1 RES     
   34090 C1        1107.3847  -910.2001  -801.0843 C1            1 RES     
   34091 C1        1107.7436  -911.3136  -800.3052 C1            1 RES     
   34092 C1        1108.9723  -911.9259  -800.5584 C1            1 RES     
   34093 N4        1109.4633  -912.9705  -799.8433 N4            1 RES     
   34094 S2        1110.9403  -913.2120  -800.5448 S2            1 RES     
   34095 N4        1111.0090  -912.0577  -801.7285 N4            1 RES     
   34096 C1        1109.8188  -911.4255  -801.5793 C1            1 RES     
   34097 C1        1109.4088  -910.3355  -802.3425 C1            1 RES     
   34098 H5        1106.4390  -909.6954  -800.9069 H5            1 RES     
   34099 C0        1103.4218  -914.3982  -798.1104 C0            1 RES     
   34100 C0        1102.5448  -913.2987  -798.8202 C0            1 RES     
   34101 C0        1101.2944  -914.0680  -799.3741 C0            1 RES     
   34102 C0        1100.2841  -913.2512  -800.1893 C0            1 RES     
   34103 C0        1099.0709  -914.0991  -800.6389 C0            1 RES     
   34104 C0        1099.3883  -915.2806  -801.5818 C0            1 RES     
   34105 C0        1100.1557  -914.9009  -802.8606 C0            1 RES     
   34106 C0        1099.4261  -913.8458  -803.7109 C0            1 RES     
   34107 C0        1100.2197  -913.4277  -804.9570 C0            1 RES     
   34108 C0        1100.3636  -914.5576  -805.9906 C0            1 RES     
   34109 C0        1101.0588  -914.0962  -807.2814 C0            1 RES     
   34110 C0        1102.5189  -913.6947  -807.0688 C0            1 RES     
   34111 C0        1102.1398  -912.0081  -798.0356 C0            1 RES     
   34112 C0        1101.2054  -912.1329  -796.7931 C0            1 RES     
   34113 C0        1101.9325  -911.5716  -795.5674 C0            1 RES     
   34114 C0        1101.3557  -911.8795  -794.1885 C0            1 RES     
   34115 C0        1100.1737  -911.0306  -793.7442 C0            1 RES     
   34116 C0        1099.7864  -911.4742  -792.3178 C0            1 RES     
   34117 C0        1098.7338  -910.5887  -791.6470 C0            1 RES     
   34118 C0        1099.2690  -909.1913  -791.3275 C0            1 RES     
   34119 H6        1102.7327  -914.9181  -797.4950 H6            1 RES     
   34120 H6        1103.6995  -915.0784  -798.9470 H6            1 RES     
   34121 H6        1103.1403  -912.9261  -799.6834 H6            1 RES     
   34122 H6        1100.7385  -914.5232  -798.5254 H6            1 RES     
   34123 H6        1101.6637  -914.8965  -800.0158 H6            1 RES     
   34124 H6        1100.7848  -912.7895  -801.0645 H6            1 RES     
   34125 H6        1099.8737  -912.4400  -799.5546 H6            1 RES     
   34126 H6        1098.3461  -913.4251  -801.1406 H6            1 RES     
   34127 H6        1098.5539  -914.5048  -799.7412 H6            1 RES     
   34128 H6        1098.4263  -915.7621  -801.8668 H6            1 RES     
   34129 H6        1099.9812  -916.0458  -801.0367 H6            1 RES     
   34130 H6        1101.1619  -914.5209  -802.5845 H6            1 RES     
   34131 H6        1100.2951  -915.8310  -803.4497 H6            1 RES     
   34132 H6        1099.2950  -912.9260  -803.1052 H6            1 RES     
   34133 H6        1098.4200  -914.2164  -804.0060 H6            1 RES     
   34134 H6        1099.6719  -912.5876  -805.4370 H6            1 RES     
   34135 H6        1101.2145  -913.0551  -804.6340 H6            1 RES     
   34136 H6        1100.9278  -915.4143  -805.5673 H6            1 RES     
   34137 H6        1099.3443  -914.9087  -806.2625 H6            1 RES     
   34138 H6        1100.4991  -913.2455  -807.7279 H6            1 RES     
   34139 H6        1101.0392  -914.9398  -808.0047 H6            1 RES     
   34140 H6        1102.6035  -912.8190  -806.3942 H6            1 RES     
   34141 H6        1103.0918  -914.5454  -806.6422 H6            1 RES     
   34142 H6        1102.9694  -913.4170  -808.0447 H6            1 RES     
   34143 H6        1101.6311  -911.3265  -798.7506 H6            1 RES     
   34144 H6        1103.0664  -911.4471  -797.7881 H6            1 RES     
   34145 H6        1100.2708  -911.5467  -796.9412 H6            1 RES     
   34146 H6        1100.9258  -913.1938  -796.6315 H6            1 RES     
   34147 H6        1102.1726  -910.4930  -795.6770 H6            1 RES     
   34148 H6        1102.8580  -912.1071  -795.5653 H6            1 RES     
   34149 H6        1101.1187  -912.9447  -794.1301 H6            1 RES     
   34150 H6        1102.1727  -911.6851  -793.4569 H6            1 RES     
   34151 H6        1100.5087  -909.9717  -793.7521 H6            1 RES     
   34152 H6        1099.3092  -911.1462  -794.4316 H6            1 RES     
   34153 H6        1099.3956  -912.5154  -792.3761 H6            1 RES     
   34154 H6        1100.6834  -911.4893  -791.6577 H6            1 RES     
   34155 H6        1098.4567  -911.0660  -790.6813 H6            1 RES     
   34156 H6        1097.8244  -910.5238  -792.2807 H6            1 RES     
   34157 H6        1099.5308  -908.6356  -792.2495 H6            1 RES     
   34158 H6        1098.4949  -908.6138  -790.7826 H6            1 RES     
   34159 H6        1100.1712  -909.2661  -790.6801 H6            1 RES     
   34160 C0        1105.4733  -915.6465  -797.0788 C0            1 RES     
   34161 C0        1104.8024  -917.0839  -797.2519 C0            1 RES     
   34162 C0        1105.6970  -918.0888  -796.4505 C0            1 RES     
   34163 C0        1105.3986  -919.5829  -796.6887 C0            1 RES     
   34164 C0        1106.2845  -920.5330  -795.8637 C0            1 RES     
   34165 C0        1107.7989  -920.4225  -796.1156 C0            1 RES     
   34166 C0        1108.2287  -920.5591  -797.5857 C0            1 RES     
   34167 C0        1107.7828  -921.8818  -798.2336 C0            1 RES     
   34168 C0        1108.2157  -922.0005  -799.7039 C0            1 RES     
   34169 C0        1109.7423  -922.0999  -799.8726 C0            1 RES     
   34170 C0        1110.1708  -922.3440  -801.3279 C0            1 RES     
   34171 C0        1109.8429  -921.1755  -802.2576 C0            1 RES     
   34172 C0        1103.2615  -917.4061  -797.0552 C0            1 RES     
   34173 C0        1102.5770  -917.3345  -795.6608 C0            1 RES     
   34174 C0        1101.6621  -916.1047  -795.5195 C0            1 RES     
   34175 C0        1100.9927  -915.9053  -794.1697 C0            1 RES     
   34176 C0        1099.8546  -916.8524  -793.8166 C0            1 RES     
   34177 C0        1099.2347  -916.3425  -792.4995 C0            1 RES     
   34178 C0        1097.9698  -917.0846  -792.0643 C0            1 RES     
   34179 C0        1096.7941  -916.8319  -793.0092 C0            1 RES     
   34180 H6        1106.0067  -915.6180  -796.1002 H6            1 RES     
   34181 H6        1106.3385  -915.6639  -797.7796 H6            1 RES     
   34182 H6        1104.9408  -917.3093  -798.3345 H6            1 RES     
   34183 H6        1105.5967  -917.8772  -795.3640 H6            1 RES     
   34184 H6        1106.7546  -917.9051  -796.7381 H6            1 RES     
   34185 H6        1105.4971  -919.8089  -797.7712 H6            1 RES     
   34186 H6        1104.3655  -919.8242  -796.3721 H6            1 RES     
   34187 H6        1105.9585  -921.5726  -796.0808 H6            1 RES     
   34188 H6        1106.0993  -920.3580  -794.7811 H6            1 RES     
   34189 H6        1108.3023  -921.2103  -795.5134 H6            1 RES     
   34190 H6        1108.1623  -919.4422  -795.7400 H6            1 RES     
   34191 H6        1107.8207  -919.7086  -798.1726 H6            1 RES     
   34192 H6        1109.3350  -920.4821  -797.6022 H6            1 RES     
   34193 H6        1106.6740  -921.9315  -798.2218 H6            1 RES     
   34194 H6        1108.1759  -922.7458  -797.6553 H6            1 RES     
   34195 H6        1107.7607  -922.9281  -800.1146 H6            1 RES     
   34196 H6        1107.8092  -921.1344  -800.2682 H6            1 RES     
   34197 H6        1110.2442  -921.1811  -799.5051 H6            1 RES     
   34198 H6        1110.1011  -922.9607  -799.2672 H6            1 RES     
   34199 H6        1109.6927  -923.2717  -801.7109 H6            1 RES     
   34200 H6        1111.2722  -922.4916  -801.3414 H6            1 RES     
   34201 H6        1108.7488  -921.0112  -802.3287 H6            1 RES     
   34202 H6        1110.3330  -920.2470  -801.8948 H6            1 RES     
   34203 H6        1110.2213  -921.4010  -803.2768 H6            1 RES     
   34204 H6        1103.1531  -918.4574  -797.3793 H6            1 RES     
   34205 H6        1102.6191  -916.9592  -797.8370 H6            1 RES     
   34206 H6        1101.8856  -918.2020  -795.5787 H6            1 RES     
   34207 H6        1103.3241  -917.4269  -794.8467 H6            1 RES     
   34208 H6        1100.8946  -916.1012  -796.3266 H6            1 RES     
   34209 H6        1102.2498  -915.1986  -795.6147 H6            1 RES     
   34210 H6        1101.7610  -915.8810  -793.3665 H6            1 RES     
   34211 H6        1100.5103  -914.9164  -794.2386 H6            1 RES     
   34212 H6        1099.1108  -916.8100  -794.6402 H6            1 RES     
   34213 H6        1100.2192  -917.8948  -793.7057 H6            1 RES     
   34214 H6        1100.0006  -916.4388  -791.6986 H6            1 RES     
   34215 H6        1098.9747  -915.2624  -792.5876 H6            1 RES     
   34216 H6        1097.6837  -916.6915  -791.0640 H6            1 RES     
   34217 H6        1098.1758  -918.1696  -791.9737 H6            1 RES     
   34218 H6        1096.9934  -917.2364  -794.0214 H6            1 RES     
   34219 H6        1095.8882  -917.3310  -792.6081 H6            1 RES     
   34220 H6        1096.5894  -915.7415  -793.0863 H6            1 RES     
   34221 C0        1111.7494  -909.5088  -807.1816 C0            1 RES     
   34222 C1        1111.2876  -909.4342  -805.7096 C1            1 RES     
   34223 C1        1112.0831  -908.6296  -804.9581 C1            1 RES     
   34224 S2        1111.6650  -908.5992  -803.3374 S2            1 RES     
   34225 C1        1110.4050  -909.7162  -803.5731 C1            1 RES     
   34226 C1        1110.3350  -910.0969  -804.9176 C1            1 RES     
   34227 C1        1113.1232  -908.1301  -805.7714 C1            1 RES     
   34228 C1        1113.0191  -908.6727  -807.0146 C1            1 RES     
   34229 C1        1114.0937  -908.3369  -807.8293 C1            1 RES     
   34230 C1        1114.9846  -907.4899  -807.1488 C1            1 RES     
   34231 S2        1114.4674  -907.1729  -805.5628 S2            1 RES     
   34232 H3        1109.6515  -910.8538  -805.2527 H3            1 RES     
   34233 H3        1114.2261  -908.6860  -808.8464 H3            1 RES     
   34234 N4        1117.7278  -905.2215  -808.3234 N4            1 RES     
   34235 C1        1116.5034  -905.6524  -807.8999 C1            1 RES     
   34236 C1        1116.2713  -907.0152  -807.6455 C1            1 RES     
   34237 C1        1117.3319  -907.9068  -807.8160 C1            1 RES     
   34238 N4        1117.2583  -909.2362  -807.5503 N4            1 RES     
   34239 S2        1118.7986  -909.7434  -807.8699 S2            1 RES     
   34240 N4        1119.5801  -908.3622  -808.3387 N4            1 RES     
   34241 C1        1118.5991  -907.4316  -808.2377 C1            1 RES     
   34242 C1        1118.7741  -906.0759  -808.5026 C1            1 RES     
   34243 H5        1115.7013  -904.9313  -807.7686 H5            1 RES     
   34244 C0        1110.8686  -908.8554  -808.3041 C0            1 RES     
   34245 C0        1110.6078  -907.3388  -808.6418 C0            1 RES     
   34246 C0        1109.5384  -907.3538  -809.7900 C0            1 RES     
   34247 C0        1109.1373  -905.9962  -810.3803 C0            1 RES     
   34248 C0        1108.0428  -906.1287  -811.4654 C0            1 RES     
   34249 C0        1108.4344  -906.9396  -812.7204 C0            1 RES     
   34250 C0        1109.7053  -906.4506  -813.4372 C0            1 RES     
   34251 C0        1109.6214  -904.9779  -813.8760 C0            1 RES     
   34252 C0        1110.9115  -904.4766  -814.5408 C0            1 RES     
   34253 C0        1111.1952  -905.1480  -815.8952 C0            1 RES     
   34254 C0        1112.4245  -904.5579  -816.6043 C0            1 RES     
   34255 C0        1113.7335  -904.8195  -815.8584 C0            1 RES     
   34256 C0        1110.2243  -906.3468  -807.4954 C0            1 RES     
   34257 C0        1108.8750  -906.5420  -806.7379 C0            1 RES     
   34258 C0        1109.1675  -906.7472  -805.2485 C0            1 RES     
   34259 C0        1108.0434  -907.2787  -804.3639 C0            1 RES     
   34260 C0        1107.0018  -906.2659  -803.9112 C0            1 RES     
   34261 C0        1105.9982  -907.0004  -802.9977 C0            1 RES     
   34262 C0        1104.9914  -906.0818  -802.3015 C0            1 RES     
   34263 C0        1105.6535  -905.1812  -801.2566 C0            1 RES     
   34264 H6        1109.8968  -909.2648  -808.1956 H6            1 RES     
   34265 H6        1111.2941  -909.2554  -809.2521 H6            1 RES     
   34266 H6        1111.5607  -906.9367  -809.0527 H6            1 RES     
   34267 H6        1108.6083  -907.8368  -809.4184 H6            1 RES     
   34268 H6        1109.9363  -907.9829  -810.6149 H6            1 RES     
   34269 H6        1110.0300  -905.4782  -810.7860 H6            1 RES     
   34270 H6        1108.7017  -905.3646  -809.5800 H6            1 RES     
   34271 H6        1107.7420  -905.1075  -811.7782 H6            1 RES     
   34272 H6        1107.1392  -906.6002  -811.0195 H6            1 RES     
   34273 H6        1107.5808  -906.9047  -813.4335 H6            1 RES     
   34274 H6        1108.5803  -908.0064  -812.4465 H6            1 RES     
   34275 H6        1110.5794  -906.5865  -812.7660 H6            1 RES     
   34276 H6        1109.8549  -907.1015  -814.3236 H6            1 RES     
   34277 H6        1109.4705  -904.3448  -812.9781 H6            1 RES     
   34278 H6        1108.7569  -904.8274  -814.5592 H6            1 RES     
   34279 H6        1110.7970  -903.3843  -814.7136 H6            1 RES     
   34280 H6        1111.7554  -904.6309  -813.8360 H6            1 RES     
   34281 H6        1111.3429  -906.2411  -815.7740 H6            1 RES     
   34282 H6        1110.3141  -904.9839  -816.5532 H6            1 RES     
   34283 H6        1112.2885  -903.4636  -816.7468 H6            1 RES     
   34284 H6        1112.5039  -905.0293  -817.6076 H6            1 RES     
   34285 H6        1113.7383  -904.3272  -814.8650 H6            1 RES     
   34286 H6        1113.8890  -905.9117  -815.7294 H6            1 RES     
   34287 H6        1114.5801  -904.4072  -816.4464 H6            1 RES     
   34288 H6        1110.2018  -905.3245  -807.9299 H6            1 RES     
   34289 H6        1111.0787  -906.2873  -806.7876 H6            1 RES     
   34290 H6        1108.2286  -905.6420  -806.8441 H6            1 RES     
   34291 H6        1108.3269  -907.4119  -807.1535 H6            1 RES     
   34292 H6        1109.6638  -905.8655  -804.7910 H6            1 RES     
   34293 H6        1109.8743  -907.5496  -805.2462 H6            1 RES     
   34294 H6        1107.5728  -908.1322  -804.8582 H6            1 RES     
   34295 H6        1108.5287  -907.6630  -803.4380 H6            1 RES     
   34296 H6        1107.5386  -905.4712  -803.3510 H6            1 RES     
   34297 H6        1106.4742  -905.8114  -804.7762 H6            1 RES     
   34298 H6        1105.4415  -907.7365  -803.6210 H6            1 RES     
   34299 H6        1106.5366  -907.5704  -802.2066 H6            1 RES     
   34300 H6        1104.2594  -906.7265  -801.7671 H6            1 RES     
   34301 H6        1104.4426  -905.4734  -803.0509 H6            1 RES     
   34302 H6        1106.3720  -904.4783  -801.7223 H6            1 RES     
   34303 H6        1104.8765  -904.5872  -800.7339 H6            1 RES     
   34304 H6        1106.1882  -905.8002  -800.5019 H6            1 RES     
   34305 C0        1112.0186  -911.0419  -807.4514 C0            1 RES     
   34306 C0        1111.1693  -911.9780  -808.4252 C0            1 RES     
   34307 C0        1111.4307  -913.4510  -807.9621 C0            1 RES     
   34308 C0        1110.9268  -914.5499  -808.9194 C0            1 RES     
   34309 C0        1111.1835  -915.9805  -808.4136 C0            1 RES     
   34310 C0        1112.6587  -916.3527  -808.1810 C0            1 RES     
   34311 C0        1113.5890  -916.1199  -809.3831 C0            1 RES     
   34312 C0        1113.1521  -916.8751  -810.6507 C0            1 RES     
   34313 C0        1114.0891  -916.6279  -811.8441 C0            1 RES     
   34314 C0        1115.4962  -917.2147  -811.6323 C0            1 RES     
   34315 C0        1116.3957  -917.0794  -812.8708 C0            1 RES     
   34316 C0        1116.7265  -915.6284  -813.2206 C0            1 RES     
   34317 C0        1109.6451  -911.7598  -808.8076 C0            1 RES     
   34318 C0        1108.5027  -911.9293  -807.7663 C0            1 RES     
   34319 C0        1107.9030  -910.5807  -807.3295 C0            1 RES     
   34320 C0        1106.8200  -910.6299  -806.2644 C0            1 RES     
   34321 C0        1105.4555  -911.1531  -806.6905 C0            1 RES     
   34322 C0        1104.4984  -910.9410  -805.4998 C0            1 RES     
   34323 C0        1103.0340  -911.2691  -805.7964 C0            1 RES     
   34324 C0        1102.4111  -910.2934  -806.7960 C0            1 RES     
   34325 H6        1112.1171  -911.5511  -806.4645 H6            1 RES     
   34326 H6        1113.0622  -911.1316  -807.8296 H6            1 RES     
   34327 H6        1111.6676  -911.8491  -809.4137 H6            1 RES     
   34328 H6        1110.9618  -913.6071  -806.9666 H6            1 RES     
   34329 H6        1112.5284  -913.5803  -807.8467 H6            1 RES     
   34330 H6        1111.3894  -914.4070  -809.9184 H6            1 RES     
   34331 H6        1109.8268  -914.4893  -809.0298 H6            1 RES     
   34332 H6        1110.7473  -916.6841  -809.1545 H6            1 RES     
   34333 H6        1110.6321  -916.1358  -807.4603 H6            1 RES     
   34334 H6        1112.6973  -917.4259  -807.8921 H6            1 RES     
   34335 H6        1113.0529  -915.7689  -807.3220 H6            1 RES     
   34336 H6        1113.6435  -915.0328  -809.6057 H6            1 RES     
   34337 H6        1114.6001  -916.4530  -809.0721 H6            1 RES     
   34338 H6        1112.1466  -916.5159  -810.9540 H6            1 RES     
   34339 H6        1113.0846  -917.9655  -810.4456 H6            1 RES     
   34340 H6        1113.6386  -917.1205  -812.7331 H6            1 RES     
   34341 H6        1114.1395  -915.5357  -812.0398 H6            1 RES     
   34342 H6        1116.0036  -916.7320  -810.7718 H6            1 RES     
   34343 H6        1115.3882  -918.2991  -811.4116 H6            1 RES     
   34344 H6        1115.9136  -917.5732  -813.7423 H6            1 RES     
   34345 H6        1117.3515  -917.6058  -812.6601 H6            1 RES     
   34346 H6        1115.8141  -915.0610  -813.4938 H6            1 RES     
   34347 H6        1117.2275  -915.1313  -812.3627 H6            1 RES     
   34348 H6        1117.4144  -915.6094  -814.0920 H6            1 RES     
   34349 H6        1109.4426  -912.5162  -809.5879 H6            1 RES     
   34350 H6        1109.4773  -910.8681  -809.4403 H6            1 RES     
   34351 H6        1107.6611  -912.4538  -808.2701 H6            1 RES     
   34352 H6        1108.8298  -912.5643  -806.9182 H6            1 RES     
   34353 H6        1107.5353  -910.0174  -808.2172 H6            1 RES     
   34354 H6        1108.6658  -909.9803  -806.8465 H6            1 RES     
   34355 H6        1107.1961  -911.1681  -805.3673 H6            1 RES     
   34356 H6        1106.6354  -909.5750  -806.0023 H6            1 RES     
   34357 H6        1105.1241  -910.5593  -807.5685 H6            1 RES     
   34358 H6        1105.5066  -912.2256  -806.9720 H6            1 RES     
   34359 H6        1104.8465  -911.5816  -804.6598 H6            1 RES     
   34360 H6        1104.5401  -909.8822  -805.1544 H6            1 RES     
   34361 H6        1102.4731  -911.1706  -804.8411 H6            1 RES     
   34362 H6        1102.9419  -912.3131  -806.1561 H6            1 RES     
   34363 H6        1102.8965  -910.3659  -807.7895 H6            1 RES     
   34364 H6        1101.3344  -910.5313  -806.9176 H6            1 RES     
   34365 H6        1102.5002  -909.2498  -806.4221 H6            1 RES     
   34366 C0        1122.9454  -904.5461  -811.6392 C0            1 RES     
   34367 C1        1121.9721  -904.8215  -810.4719 C1            1 RES     
   34368 C1        1122.5657  -904.6777  -809.2586 C1            1 RES     
   34369 S2        1121.5632  -905.0586  -807.9732 S2            1 RES     
   34370 C1        1120.2834  -905.4804  -809.0100 C1            1 RES     
   34371 C1        1120.6642  -905.3188  -810.3466 C1            1 RES     
   34372 C1        1123.9240  -904.3460  -809.4530 C1            1 RES     
   34373 C1        1124.1986  -904.3468  -810.7855 C1            1 RES     
   34374 C1        1125.5520  -904.1687  -811.0460 C1            1 RES     
   34375 C1        1126.2680  -903.9987  -809.8491 C1            1 RES     
   34376 S2        1125.2542  -904.0838  -808.4895 S2            1 RES     
   34377 H3        1120.0178  -905.6063  -811.1539 H3            1 RES     
   34378 H3        1125.9920  -904.1671  -812.0361 H3            1 RES     
   34379 N4        1129.6804  -902.6380  -809.1043 N4            1 RES     
   34380 C1        1128.3257  -902.7081  -809.2595 C1            1 RES     
   34381 C1        1127.7168  -903.8883  -809.7201 C1            1 RES     
   34382 C1        1128.5330  -904.9881  -809.9905 C1            1 RES     
   34383 N4        1128.0684  -906.2014  -810.3848 N4            1 RES     
   34384 S2        1129.4565  -907.0933  -810.4826 S2            1 RES     
   34385 N4        1130.6441  -906.0244  -810.0522 N4            1 RES     
   34386 C1        1129.9349  -904.8960  -809.8025 C1            1 RES     
   34387 C1        1130.4955  -903.6974  -809.3691 C1            1 RES     
   34388 H5        1127.7179  -901.8367  -809.0318 H5            1 RES     
   34389 C0        1122.7443  -903.2708  -812.5314 C0            1 RES     
   34390 C0        1122.9800  -901.7485  -812.2015 C0            1 RES     
   34391 C0        1122.4726  -900.9726  -813.4675 C0            1 RES     
   34392 C0        1122.6469  -899.4488  -813.4617 C0            1 RES     
   34393 C0        1122.0663  -898.7871  -814.7336 C0            1 RES     
   34394 C0        1122.7286  -899.1972  -816.0675 C0            1 RES     
   34395 C0        1124.2528  -898.9925  -816.1238 C0            1 RES     
   34396 C0        1124.6763  -897.5378  -815.8535 C0            1 RES     
   34397 C0        1126.1999  -897.3476  -815.8549 C0            1 RES     
   34398 C0        1126.8359  -897.5632  -817.2387 C0            1 RES     
   34399 C0        1128.3423  -897.2586  -817.2535 C0            1 RES     
   34400 C0        1129.1602  -898.2221  -816.3927 C0            1 RES     
   34401 C0        1122.4077  -901.1474  -810.8762 C0            1 RES     
   34402 C0        1120.8626  -901.0835  -810.6729 C0            1 RES     
   34403 C0        1120.4939  -901.8830  -809.4195 C0            1 RES     
   34404 C0        1119.0255  -902.2361  -809.2008 C0            1 RES     
   34405 C0        1118.1424  -901.1362  -808.6300 C0            1 RES     
   34406 C0        1116.7253  -901.7189  -808.4470 C0            1 RES     
   34407 C0        1115.7569  -900.7971  -807.7022 C0            1 RES     
   34408 C0        1116.1374  -900.6230  -806.2304 C0            1 RES     
   34409 H6        1121.7435  -903.3060  -812.8791 H6            1 RES     
   34410 H6        1123.4075  -903.4445  -813.4087 H6            1 RES     
   34411 H6        1124.0810  -901.6081  -812.1199 H6            1 RES     
   34412 H6        1121.3894  -901.1776  -813.6133 H6            1 RES     
   34413 H6        1123.0121  -901.3766  -814.3508 H6            1 RES     
   34414 H6        1123.7178  -899.1881  -813.3389 H6            1 RES     
   34415 H6        1122.0839  -899.0203  -812.6081 H6            1 RES     
   34416 H6        1122.1467  -897.6866  -814.6172 H6            1 RES     
   34417 H6        1120.9801  -899.0176  -814.8039 H6            1 RES     
   34418 H6        1122.2541  -898.6077  -816.8834 H6            1 RES     
   34419 H6        1122.5150  -900.2668  -816.2783 H6            1 RES     
   34420 H6        1124.7396  -899.6622  -815.3838 H6            1 RES     
   34421 H6        1124.5899  -899.3031  -817.1345 H6            1 RES     
   34422 H6        1124.3296  -897.2461  -814.8413 H6            1 RES     
   34423 H6        1124.2060  -896.8549  -816.5945 H6            1 RES     
   34424 H6        1126.4075  -896.3023  -815.5380 H6            1 RES     
   34425 H6        1126.6425  -898.0337  -815.1026 H6            1 RES     
   34426 H6        1126.6780  -898.6036  -817.5911 H6            1 RES     
   34427 H6        1126.3439  -896.8711  -817.9564 H6            1 RES     
   34428 H6        1128.5192  -896.2142  -816.9156 H6            1 RES     
   34429 H6        1128.7024  -897.3481  -818.3012 H6            1 RES     
   34430 H6        1128.8838  -898.1421  -815.3220 H6            1 RES     
   34431 H6        1129.0065  -899.2672  -816.7361 H6            1 RES     
   34432 H6        1130.2380  -897.9728  -816.4852 H6            1 RES     
   34433 H6        1122.7845  -900.1058  -810.7899 H6            1 RES     
   34434 H6        1122.9058  -901.6537  -810.0218 H6            1 RES     
   34435 H6        1120.5267  -900.0325  -810.5258 H6            1 RES     
   34436 H6        1120.3437  -901.4906  -811.5644 H6            1 RES     
   34437 H6        1120.9527  -901.4614  -808.5004 H6            1 RES     
   34438 H6        1120.9462  -902.8359  -809.5951 H6            1 RES     
   34439 H6        1118.6103  -902.6302  -810.1317 H6            1 RES     
   34440 H6        1119.0103  -903.0661  -808.4582 H6            1 RES     
   34441 H6        1118.5779  -900.8401  -807.6522 H6            1 RES     
   34442 H6        1118.1115  -900.2512  -809.3001 H6            1 RES     
   34443 H6        1116.3098  -901.9353  -809.4574 H6            1 RES     
   34444 H6        1116.7692  -902.6820  -807.8893 H6            1 RES     
   34445 H6        1114.7508  -901.2707  -807.7303 H6            1 RES     
   34446 H6        1115.6958  -899.8115  -808.2097 H6            1 RES     
   34447 H6        1117.1174  -900.1180  -806.1208 H6            1 RES     
   34448 H6        1115.3704  -900.0060  -805.7200 H6            1 RES     
   34449 H6        1116.1816  -901.6146  -805.7268 H6            1 RES     
   34450 C0        1122.9520  -905.8758  -812.4921 C0            1 RES     
   34451 C0        1122.3684  -906.0366  -813.9685 C0            1 RES     
   34452 C0        1122.0938  -907.5649  -814.1715 C0            1 RES     
   34453 C0        1121.7761  -907.9987  -815.6168 C0            1 RES     
   34454 C0        1121.4899  -909.5034  -815.7656 C0            1 RES     
   34455 C0        1122.6331  -910.4458  -815.3487 C0            1 RES     
   34456 C0        1123.9868  -910.1698  -816.0239 C0            1 RES     
   34457 C0        1123.9268  -910.2239  -817.5607 C0            1 RES     
   34458 C0        1125.2864  -909.9410  -818.2201 C0            1 RES     
   34459 C0        1126.3294  -911.0367  -817.9360 C0            1 RES     
   34460 C0        1127.6483  -910.8210  -818.6944 C0            1 RES     
   34461 C0        1128.4024  -909.5679  -818.2493 C0            1 RES     
   34462 C0        1121.2061  -905.1575  -814.5955 C0            1 RES     
   34463 C0        1119.7402  -905.2454  -814.0844 C0            1 RES     
   34464 C0        1119.3322  -904.0117  -813.2593 C0            1 RES     
   34465 C0        1117.9366  -904.0257  -812.6578 C0            1 RES     
   34466 C0        1116.7698  -903.8305  -813.6157 C0            1 RES     
   34467 C0        1115.4951  -903.7083  -812.7559 C0            1 RES     
   34468 C0        1114.2314  -903.3527  -813.5414 C0            1 RES     
   34469 C0        1114.2838  -901.9360  -814.1154 C0            1 RES     
   34470 H6        1122.5399  -906.6931  -811.8554 H6            1 RES     
   34471 H6        1124.0121  -906.2049  -812.5813 H6            1 RES     
   34472 H6        1123.2298  -905.7660  -814.6219 H6            1 RES     
   34473 H6        1121.2500  -907.8722  -813.5167 H6            1 RES     
   34474 H6        1122.9998  -908.1187  -813.8437 H6            1 RES     
   34475 H6        1122.6127  -907.6992  -816.2823 H6            1 RES     
   34476 H6        1120.8508  -907.5052  -815.9721 H6            1 RES     
   34477 H6        1121.2352  -909.6952  -816.8299 H6            1 RES     
   34478 H6        1120.5891  -909.7651  -815.1680 H6            1 RES     
   34479 H6        1122.3164  -911.4869  -815.5779 H6            1 RES     
   34480 H6        1122.7773  -910.3829  -814.2490 H6            1 RES     
   34481 H6        1124.3636  -909.1738  -815.7075 H6            1 RES     
   34482 H6        1124.6936  -910.9355  -815.6442 H6            1 RES     
   34483 H6        1123.2278  -909.4403  -817.9205 H6            1 RES     
   34484 H6        1123.5446  -911.2120  -817.8969 H6            1 RES     
   34485 H6        1125.1238  -909.8941  -819.3190 H6            1 RES     
   34486 H6        1125.6501  -908.9483  -817.8797 H6            1 RES     
   34487 H6        1126.5517  -911.1031  -816.8510 H6            1 RES     
   34488 H6        1125.9061  -912.0102  -818.2669 H6            1 RES     
   34489 H6        1127.4505  -910.7697  -819.7871 H6            1 RES     
   34490 H6        1128.3023  -911.6988  -818.5022 H6            1 RES     
   34491 H6        1127.8208  -908.6490  -818.4649 H6            1 RES     
   34492 H6        1128.6231  -909.6187  -817.1618 H6            1 RES     
   34493 H6        1129.3625  -909.5022  -818.8030 H6            1 RES     
   34494 H6        1121.1639  -905.4670  -815.6559 H6            1 RES     
   34495 H6        1121.5022  -904.1070  -814.7754 H6            1 RES     
   34496 H6        1119.0704  -905.2160  -814.9719 H6            1 RES     
   34497 H6        1119.5587  -906.2070  -813.5630 H6            1 RES     
   34498 H6        1119.4771  -903.0835  -813.8575 H6            1 RES     
   34499 H6        1119.9567  -903.9396  -812.3758 H6            1 RES     
   34500 H6        1117.8011  -904.9386  -812.0380 H6            1 RES     
   34501 H6        1117.9027  -903.1375  -812.0056 H6            1 RES     
   34502 H6        1116.9499  -902.8926  -814.1823 H6            1 RES     
   34503 H6        1116.6882  -904.6783  -814.3274 H6            1 RES     
   34504 H6        1115.3343  -904.6797  -812.2385 H6            1 RES     
   34505 H6        1115.6314  -902.9284  -811.9716 H6            1 RES     
   34506 H6        1113.3778  -903.3924  -812.8297 H6            1 RES     
   34507 H6        1114.0590  -904.0965  -814.3444 H6            1 RES     
   34508 H6        1115.0909  -901.8330  -814.8675 H6            1 RES     
   34509 H6        1113.3176  -901.7051  -814.6091 H6            1 RES     
   34510 H6        1114.4479  -901.1965  -813.3011 H6            1 RES     
   34511 C0        1135.7889  -902.8196  -810.2561 C0            1 RES     
   34512 C1        1134.4010  -903.1045  -809.6411 C1            1 RES     
   34513 C1        1134.4867  -903.6173  -808.3861 C1            1 RES     
   34514 S2        1133.0030  -904.0235  -807.7258 S2            1 RES     
   34515 C1        1132.1738  -903.5605  -809.1361 C1            1 RES     
   34516 C1        1133.0740  -903.0982  -810.1024 C1            1 RES     
   34517 C1        1135.8491  -903.7611  -808.0454 C1            1 RES     
   34518 C1        1136.6169  -903.4017  -809.1094 C1            1 RES     
   34519 C1        1137.9668  -903.6536  -808.8959 C1            1 RES     
   34520 C1        1138.1740  -904.1829  -807.6109 C1            1 RES     
   34521 S2        1136.7166  -904.3551  -806.7566 S2            1 RES     
   34522 H3        1132.7500  -902.8307  -811.0902 H3            1 RES     
   34523 H3        1138.7484  -903.4711  -809.6236 H3            1 RES     
   34524 N4        1141.2295  -904.5152  -805.4653 N4            1 RES     
   34525 C1        1140.0655  -904.0257  -805.9847 C1            1 RES     
   34526 C1        1139.4411  -904.6629  -807.0709 C1            1 RES     
   34527 C1        1140.0322  -905.8185  -807.5849 C1            1 RES     
   34528 N4        1139.5034  -906.5601  -808.5918 N4            1 RES     
   34529 S2        1140.5834  -907.8053  -808.7145 S2            1 RES     
   34530 N4        1141.7116  -907.4658  -807.5525 N4            1 RES     
   34531 C1        1141.2304  -906.3176  -807.0152 C1            1 RES     
   34532 C1        1141.8263  -905.6374  -805.9564 C1            1 RES     
   34533 H5        1139.6266  -903.1291  -805.5558 H5            1 RES     
   34534 C0        1136.2420  -901.3358  -810.4923 C0            1 RES     
   34535 C0        1136.6603  -900.2212  -809.4606 C0            1 RES     
   34536 C0        1136.8760  -898.9272  -810.3218 C0            1 RES     
   34537 C0        1137.3669  -897.6768  -809.5817 C0            1 RES     
   34538 C0        1137.4942  -896.4527  -810.5188 C0            1 RES     
   34539 C0        1138.5180  -896.5884  -811.6674 C0            1 RES     
   34540 C0        1139.9461  -896.9505  -811.2230 C0            1 RES     
   34541 C0        1140.5405  -895.9425  -810.2234 C0            1 RES     
   34542 C0        1141.9433  -896.3359  -809.7388 C0            1 RES     
   34543 C0        1143.0062  -896.2767  -810.8489 C0            1 RES     
   34544 C0        1144.4244  -896.5603  -810.3286 C0            1 RES     
   34545 C0        1144.6033  -897.9899  -809.8161 C0            1 RES     
   34546 C0        1135.7625  -899.9505  -808.2092 C0            1 RES     
   34547 C0        1134.3175  -899.3995  -808.4123 C0            1 RES     
   34548 C0        1133.3195  -900.3885  -807.8024 C0            1 RES     
   34549 C0        1131.8445  -900.2311  -808.1611 C0            1 RES     
   34550 C0        1131.0759  -899.1548  -807.4086 C0            1 RES     
   34551 C0        1129.6099  -899.2022  -807.8880 C0            1 RES     
   34552 C0        1128.6574  -898.3087  -807.0902 C0            1 RES     
   34553 C0        1128.4582  -898.8066  -805.6571 C0            1 RES     
   34554 H6        1135.4773  -900.8793  -811.0672 H6            1 RES     
   34555 H6        1137.1399  -901.4255  -811.1447 H6            1 RES     
   34556 H6        1137.6422  -900.5315  -809.0387 H6            1 RES     
   34557 H6        1135.9208  -898.6571  -810.8229 H6            1 RES     
   34558 H6        1137.6146  -899.1685  -811.1159 H6            1 RES     
   34559 H6        1138.3325  -897.8864  -809.0782 H6            1 RES     
   34560 H6        1136.6243  -897.3955  -808.8080 H6            1 RES     
   34561 H6        1137.7641  -895.5717  -809.9006 H6            1 RES     
   34562 H6        1136.5011  -896.2295  -810.9679 H6            1 RES     
   34563 H6        1138.5452  -895.6232  -812.2207 H6            1 RES     
   34564 H6        1138.1730  -897.3612  -812.3871 H6            1 RES     
   34565 H6        1139.9420  -897.9633  -810.7675 H6            1 RES     
   34566 H6        1140.5749  -896.9929  -812.1365 H6            1 RES     
   34567 H6        1139.8984  -895.9135  -809.3196 H6            1 RES     
   34568 H6        1140.5626  -894.9241  -810.6694 H6            1 RES     
   34569 H6        1142.2359  -895.6185  -808.9413 H6            1 RES     
   34570 H6        1141.8912  -897.3508  -809.2918 H6            1 RES     
   34571 H6        1142.7731  -896.9957  -811.6614 H6            1 RES     
   34572 H6        1143.0020  -895.2504  -811.2767 H6            1 RES     
   34573 H6        1144.6811  -895.8397  -809.5217 H6            1 RES     
   34574 H6        1145.1370  -896.4073  -811.1675 H6            1 RES     
   34575 H6        1143.9542  -898.1897  -808.9399 H6            1 RES     
   34576 H6        1144.3692  -898.7176  -810.6220 H6            1 RES     
   34577 H6        1145.6570  -898.1374  -809.4995 H6            1 RES     
   34578 H6        1136.2958  -899.2185  -807.5656 H6            1 RES     
   34579 H6        1135.7598  -900.8657  -807.5793 H6            1 RES     
   34580 H6        1134.1928  -898.4194  -807.8996 H6            1 RES     
   34581 H6        1134.1139  -899.2528  -809.4925 H6            1 RES     
   34582 H6        1133.4619  -900.5101  -806.7080 H6            1 RES     
   34583 H6        1133.5810  -901.3165  -808.2646 H6            1 RES     
   34584 H6        1131.7518  -900.0975  -809.2417 H6            1 RES     
   34585 H6        1131.3557  -901.1993  -807.9076 H6            1 RES     
   34586 H6        1131.1466  -899.3966  -806.3269 H6            1 RES     
   34587 H6        1131.5074  -898.1473  -807.5874 H6            1 RES     
   34588 H6        1129.5875  -898.8876  -808.9561 H6            1 RES     
   34589 H6        1129.2169  -900.2431  -807.8368 H6            1 RES     
   34590 H6        1127.6654  -898.3395  -807.5924 H6            1 RES     
   34591 H6        1129.0203  -897.2594  -807.0929 H6            1 RES     
   34592 H6        1129.4019  -898.7673  -805.0782 H6            1 RES     
   34593 H6        1127.7098  -898.1690  -805.1442 H6            1 RES     
   34594 H6        1128.0803  -899.8535  -805.6650 H6            1 RES     
   34595 C0        1135.8349  -903.6758  -811.5829 C0            1 RES     
   34596 C0        1135.8576  -903.0904  -813.0671 C0            1 RES     
   34597 C0        1135.3535  -904.2399  -814.0037 C0            1 RES     
   34598 C0        1135.5409  -903.9984  -815.5151 C0            1 RES     
   34599 C0        1135.0103  -905.1419  -816.3978 C0            1 RES     
   34600 C0        1135.6585  -906.5190  -816.1690 C0            1 RES     
   34601 C0        1137.1931  -906.5431  -816.2645 C0            1 RES     
   34602 C0        1137.7306  -906.0365  -817.6145 C0            1 RES     
   34603 C0        1139.2657  -906.0622  -817.6919 C0            1 RES     
   34604 C0        1139.8426  -907.4890  -817.6717 C0            1 RES     
   34605 C0        1141.3654  -907.5237  -817.8746 C0            1 RES     
   34606 C0        1142.1415  -906.8714  -816.7305 C0            1 RES     
   34607 C0        1135.2608  -901.6884  -813.5088 C0            1 RES     
   34608 C0        1133.7320  -901.4040  -813.4975 C0            1 RES     
   34609 C0        1133.3174  -900.4741  -812.3431 C0            1 RES     
   34610 C0        1131.8324  -900.1829  -812.2029 C0            1 RES     
   34611 C0        1131.2099  -899.2556  -813.2372 C0            1 RES     
   34612 C0        1129.7616  -898.9803  -812.7835 C0            1 RES     
   34613 C0        1129.0206  -897.9386  -813.6236 C0            1 RES     
   34614 C0        1129.6064  -896.5355  -813.4582 C0            1 RES     
   34615 H6        1135.0361  -904.4509  -811.5181 H6            1 RES     
   34616 H6        1136.7433  -904.3176  -811.5296 H6            1 RES     
   34617 H6        1136.9428  -902.9463  -813.2757 H6            1 RES     
   34618 H6        1134.2751  -904.4225  -813.8059 H6            1 RES     
   34619 H6        1135.9109  -905.1635  -813.7371 H6            1 RES     
   34620 H6        1136.6152  -903.8161  -815.7274 H6            1 RES     
   34621 H6        1134.9636  -903.1103  -815.8374 H6            1 RES     
   34622 H6        1135.1581  -904.8463  -817.4585 H6            1 RES     
   34623 H6        1133.9137  -905.2447  -816.2432 H6            1 RES     
   34624 H6        1135.2351  -907.2231  -816.9183 H6            1 RES     
   34625 H6        1135.3697  -906.8977  -815.1653 H6            1 RES     
   34626 H6        1137.6260  -905.9301  -815.4453 H6            1 RES     
   34627 H6        1137.5055  -907.5948  -816.1018 H6            1 RES     
   34628 H6        1137.4213  -904.9791  -817.7501 H6            1 RES     
   34629 H6        1137.3023  -906.6338  -818.4484 H6            1 RES     
   34630 H6        1139.5622  -905.5822  -818.6499 H6            1 RES     
   34631 H6        1139.6768  -905.4556  -816.8571 H6            1 RES     
   34632 H6        1139.6006  -908.0030  -816.7187 H6            1 RES     
   34633 H6        1139.3789  -908.0605  -818.5053 H6            1 RES     
   34634 H6        1141.6289  -907.0291  -818.8347 H6            1 RES     
   34635 H6        1141.6793  -908.5880  -817.9364 H6            1 RES     
   34636 H6        1141.9105  -905.7900  -816.6511 H6            1 RES     
   34637 H6        1141.9006  -907.3721  -815.7686 H6            1 RES     
   34638 H6        1143.2305  -906.9750  -816.9208 H6            1 RES     
   34639 H6        1135.5706  -901.5736  -814.5637 H6            1 RES     
   34640 H6        1135.8284  -900.8271  -813.1092 H6            1 RES     
   34641 H6        1133.4888  -900.8263  -814.4164 H6            1 RES     
   34642 H6        1133.1524  -902.3485  -813.5357 H6            1 RES     
   34643 H6        1133.8871  -899.5185  -812.3950 H6            1 RES     
   34644 H6        1133.5443  -900.9460  -811.3936 H6            1 RES     
   34645 H6        1131.2660  -901.1361  -812.1232 H6            1 RES     
   34646 H6        1131.7430  -899.6287  -811.2541 H6            1 RES     
   34647 H6        1131.8008  -898.3154  -813.2485 H6            1 RES     
   34648 H6        1131.2284  -899.7120  -814.2488 H6            1 RES     
   34649 H6        1129.1999  -899.9394  -812.8241 H6            1 RES     
   34650 H6        1129.7484  -898.6277  -811.7264 H6            1 RES     
   34651 H6        1127.9704  -897.9062  -813.2589 H6            1 RES     
   34652 H6        1129.0169  -898.2403  -814.6898 H6            1 RES     
   34653 H6        1130.6449  -896.4821  -813.8409 H6            1 RES     
   34654 H6        1128.9888  -895.8113  -814.0280 H6            1 RES     
   34655 H6        1129.5972  -896.2382  -812.3865 H6            1 RES     
   34656 C0        1147.0945  -906.5118  -804.9266 C0            1 RES     
   34657 C1        1145.5510  -906.4620  -804.8954 C1            1 RES     
   34658 C1        1145.0215  -907.3702  -804.0353 C1            1 RES     
   34659 S2        1143.3478  -907.4059  -804.0455 S2            1 RES     
   34660 C1        1143.2636  -906.2145  -805.2556 C1            1 RES     
   34661 C1        1144.5488  -905.8109  -805.6339 C1            1 RES     
   34662 C1        1146.0721  -908.1114  -803.4525 C1            1 RES     
   34663 C1        1147.2547  -907.7144  -803.9954 C1            1 RES     
   34664 C1        1148.3202  -908.5004  -803.5732 C1            1 RES     
   34665 C1        1147.8837  -909.4778  -802.6631 C1            1 RES     
   34666 S2        1146.2093  -909.3880  -802.3951 S2            1 RES     
   34667 H3        1144.7064  -905.1196  -806.4398 H3            1 RES     
   34668 H3        1149.3439  -908.3774  -803.9059 H3            1 RES     
   34669 N4        1149.6959  -911.6261  -800.1829 N4            1 RES     
   34670 C1        1148.9691  -910.5973  -800.7096 C1            1 RES     
   34671 C1        1148.6967  -910.5434  -802.0875 C1            1 RES     
   34672 C1        1149.1700  -911.5805  -802.8933 C1            1 RES     
   34673 N4        1148.9287  -911.6792  -804.2258 N4            1 RES     
   34674 S2        1149.6651  -913.1081  -804.6104 S2            1 RES     
   34675 N4        1150.2915  -913.6299  -803.1704 N4            1 RES     
   34676 C1        1149.9055  -912.6475  -802.3192 C1            1 RES     
   34677 C1        1150.1728  -912.6443  -800.9527 C1            1 RES     
   34678 H5        1148.6076  -909.8102  -800.0535 H5            1 RES     
   34679 C0        1147.9204  -905.3143  -804.3378 C0            1 RES     
   34680 C0        1148.1359  -904.8613  -802.8444 C0            1 RES     
   34681 C0        1148.9530  -903.5248  -802.9364 C0            1 RES     
   34682 C0        1149.3779  -902.8804  -801.6111 C0            1 RES     
   34683 C0        1150.1305  -901.5456  -801.8227 C0            1 RES     
   34684 C0        1151.4651  -901.6407  -802.5945 C0            1 RES     
   34685 C0        1152.4854  -902.6304  -802.0048 C0            1 RES     
   34686 C0        1152.8471  -902.3231  -800.5408 C0            1 RES     
   34687 C0        1153.8222  -903.3443  -799.9377 C0            1 RES     
   34688 C0        1155.2197  -903.2988  -800.5783 C0            1 RES     
   34689 C0        1156.2187  -904.2432  -799.8911 C0            1 RES     
   34690 C0        1155.8607  -905.7209  -800.0541 C0            1 RES     
   34691 C0        1146.9034  -904.7312  -801.8909 C0            1 RES     
   34692 C0        1145.8152  -903.6557  -802.1938 C0            1 RES     
   34693 C0        1144.4658  -904.3552  -802.3832 C0            1 RES     
   34694 C0        1143.3247  -903.5550  -803.0047 C0            1 RES     
   34695 C0        1142.5817  -902.6038  -802.0780 C0            1 RES     
   34696 C0        1141.4506  -901.9419  -802.8927 C0            1 RES     
   34697 C0        1140.4851  -901.0969  -802.0583 C0            1 RES     
   34698 C0        1139.6347  -901.9496  -801.1144 C0            1 RES     
   34699 H6        1147.5643  -904.4410  -804.8219 H6            1 RES     
   34700 H6        1148.9580  -905.4951  -804.6988 H6            1 RES     
   34701 H6        1148.7782  -905.6350  -802.3675 H6            1 RES     
   34702 H6        1148.3568  -902.7683  -803.4920 H6            1 RES     
   34703 H6        1149.8706  -903.7293  -803.5287 H6            1 RES     
   34704 H6        1149.9959  -903.5893  -801.0234 H6            1 RES     
   34705 H6        1148.4737  -902.6329  -801.0192 H6            1 RES     
   34706 H6        1150.3241  -901.0972  -800.8263 H6            1 RES     
   34707 H6        1149.4696  -900.8337  -802.3650 H6            1 RES     
   34708 H6        1151.9203  -900.6256  -802.6222 H6            1 RES     
   34709 H6        1151.2683  -901.9331  -803.6481 H6            1 RES     
   34710 H6        1152.0787  -903.6613  -802.0759 H6            1 RES     
   34711 H6        1153.3957  -902.5815  -802.6377 H6            1 RES     
   34712 H6        1151.9257  -902.3752  -799.9258 H6            1 RES     
   34713 H6        1153.2675  -901.2972  -800.4544 H6            1 RES     
   34714 H6        1153.9293  -903.1075  -798.8567 H6            1 RES     
   34715 H6        1153.3754  -904.3566  -800.0296 H6            1 RES     
   34716 H6        1155.1711  -903.5535  -801.6573 H6            1 RES     
   34717 H6        1155.6111  -902.2628  -800.4797 H6            1 RES     
   34718 H6        1156.2910  -903.9938  -798.8099 H6            1 RES     
   34719 H6        1157.2180  -904.0821  -800.3500 H6            1 RES     
   34720 H6        1154.8931  -905.9587  -799.5680 H6            1 RES     
   34721 H6        1155.8067  -905.9852  -801.1316 H6            1 RES     
   34722 H6        1156.6444  -906.3439  -799.5745 H6            1 RES     
   34723 H6        1147.2891  -904.5169  -800.8712 H6            1 RES     
   34724 H6        1146.4510  -905.7387  -801.7688 H6            1 RES     
   34725 H6        1145.7198  -902.9406  -801.3461 H6            1 RES     
   34726 H6        1146.0898  -903.0809  -803.1015 H6            1 RES     
   34727 H6        1144.1365  -904.8909  -801.4680 H6            1 RES     
   34728 H6        1144.6750  -905.0930  -803.1284 H6            1 RES     
   34729 H6        1143.6955  -903.0320  -803.8896 H6            1 RES     
   34730 H6        1142.5743  -904.2999  -803.3548 H6            1 RES     
   34731 H6        1142.1668  -903.2126  -801.2469 H6            1 RES     
   34732 H6        1143.2603  -901.8297  -801.6614 H6            1 RES     
   34733 H6        1141.9193  -901.2926  -803.6666 H6            1 RES     
   34734 H6        1140.8490  -902.7148  -803.4231 H6            1 RES     
   34735 H6        1139.7898  -900.5865  -802.7605 H6            1 RES     
   34736 H6        1141.0427  -900.3226  -801.4907 H6            1 RES     
   34737 H6        1140.2587  -902.4615  -800.3555 H6            1 RES     
   34738 H6        1138.9066  -901.3020  -800.5850 H6            1 RES     
   34739 H6        1139.0685  -902.7127  -801.6938 H6            1 RES     
   34740 C0        1147.4664  -906.8094  -806.4328 C0            1 RES     
   34741 C0        1148.1987  -905.7989  -807.4271 C0            1 RES     
   34742 C0        1147.8615  -906.2833  -808.8776 C0            1 RES     
   34743 C0        1148.6754  -905.6208  -810.0075 C0            1 RES     
   34744 C0        1148.2947  -906.1090  -811.4164 C0            1 RES     
   34745 C0        1148.4785  -907.6153  -811.6743 C0            1 RES     
   34746 C0        1149.8806  -908.1652  -811.3640 C0            1 RES     
   34747 C0        1151.0024  -907.4578  -812.1445 C0            1 RES     
   34748 C0        1152.3975  -908.0156  -811.8193 C0            1 RES     
   34749 C0        1152.5884  -909.4665  -812.2964 C0            1 RES     
   34750 C0        1154.0198  -909.9842  -812.0855 C0            1 RES     
   34751 C0        1154.4083  -910.1006  -810.6115 C0            1 RES     
   34752 C0        1148.1498  -904.2164  -807.3258 C0            1 RES     
   34753 C0        1146.8437  -903.4146  -807.5886 C0            1 RES     
   34754 C0        1146.2266  -902.8585  -806.2927 C0            1 RES     
   34755 C0        1144.9104  -902.1113  -806.4311 C0            1 RES     
   34756 C0        1144.9660  -900.7246  -807.0564 C0            1 RES     
   34757 C0        1143.5561  -900.1131  -806.9251 C0            1 RES     
   34758 C0        1143.4549  -898.6512  -807.3643 C0            1 RES     
   34759 C0        1144.2238  -897.7110  -806.4348 C0            1 RES     
   34760 H6        1146.5561  -907.2087  -806.9378 H6            1 RES     
   34761 H6        1148.1143  -907.7150  -806.4394 H6            1 RES     
   34762 H6        1149.2813  -905.9999  -807.2550 H6            1 RES     
   34763 H6        1146.7808  -906.1144  -809.0746 H6            1 RES     
   34764 H6        1148.0499  -907.3776  -808.9220 H6            1 RES     
   34765 H6        1149.7582  -905.7835  -809.8241 H6            1 RES     
   34766 H6        1148.4832  -904.5306  -810.0319 H6            1 RES     
   34767 H6        1148.9084  -905.5411  -812.1480 H6            1 RES     
   34768 H6        1147.2323  -905.8495  -811.6188 H6            1 RES     
   34769 H6        1148.2385  -907.8092  -812.7426 H6            1 RES     
   34770 H6        1147.7430  -908.1836  -811.0659 H6            1 RES     
   34771 H6        1150.0814  -908.0776  -810.2748 H6            1 RES     
   34772 H6        1149.8626  -909.2444  -811.6192 H6            1 RES     
   34773 H6        1151.0137  -906.3842  -811.8628 H6            1 RES     
   34774 H6        1150.8149  -907.5285  -813.2378 H6            1 RES     
   34775 H6        1153.1444  -907.3783  -812.3410 H6            1 RES     
   34776 H6        1152.5713  -907.9308  -810.7256 H6            1 RES     
   34777 H6        1151.8846  -910.1513  -811.7801 H6            1 RES     
   34778 H6        1152.3749  -909.5021  -813.3870 H6            1 RES     
   34779 H6        1154.7414  -909.3215  -812.6109 H6            1 RES     
   34780 H6        1154.0885  -910.9972  -812.5372 H6            1 RES     
   34781 H6        1154.4105  -909.1093  -810.1152 H6            1 RES     
   34782 H6        1153.7049  -910.7775  -810.0814 H6            1 RES     
   34783 H6        1155.4322  -910.5232  -810.5349 H6            1 RES     
   34784 H6        1148.8658  -903.8660  -808.0917 H6            1 RES     
   34785 H6        1148.6906  -903.8185  -806.4466 H6            1 RES     
   34786 H6        1147.1151  -902.5087  -808.1742 H6            1 RES     
   34787 H6        1146.1320  -904.0049  -808.2005 H6            1 RES     
   34788 H6        1146.9673  -902.2238  -805.7552 H6            1 RES     
   34789 H6        1145.9520  -903.6775  -805.6374 H6            1 RES     
   34790 H6        1144.1623  -902.7549  -806.9429 H6            1 RES     
   34791 H6        1144.5811  -901.9279  -805.3950 H6            1 RES     
   34792 H6        1145.7063  -900.1250  -806.4857 H6            1 RES     
   34793 H6        1145.2783  -900.7759  -808.1202 H6            1 RES     
   34794 H6        1142.8580  -900.7218  -807.5410 H6            1 RES     
   34795 H6        1143.2076  -900.1691  -805.8680 H6            1 RES     
   34796 H6        1142.3815  -898.3647  -807.3143 H6            1 RES     
   34797 H6        1143.8032  -898.5419  -808.4105 H6            1 RES     
   34798 H6        1145.3129  -897.9130  -806.4645 H6            1 RES     
   34799 H6        1144.0565  -896.6622  -806.7549 H6            1 RES     
   34800 H6        1143.8610  -897.8214  -805.3893 H6            1 RES     
   34801 C0        1154.2780  -915.6858  -799.0884 C0            1 RES     
   34802 C1        1152.8989  -915.0881  -799.4442 C1            1 RES     
   34803 C1        1151.8874  -915.9761  -799.2609 C1            1 RES     
   34804 S2        1150.3895  -915.3902  -799.7249 S2            1 RES     
   34805 C1        1151.0530  -913.9118  -800.2394 C1            1 RES     
   34806 C1        1152.4382  -913.9032  -800.0421 C1            1 RES     
   34807 C1        1152.4325  -917.2028  -798.8240 C1            1 RES     
   34808 C1        1153.7892  -917.1053  -798.7967 C1            1 RES     
   34809 C1        1154.4006  -918.3206  -798.5129 C1            1 RES     
   34810 C1        1153.4372  -919.3198  -798.2939 C1            1 RES     
   34811 S2        1151.8572  -918.7214  -798.4642 S2            1 RES     
   34812 H3        1153.0483  -913.0850  -800.3749 H3            1 RES     
   34813 H3        1155.4723  -918.4745  -798.4723 H3            1 RES     
   34814 N4        1153.6059  -922.6970  -796.6765 N4            1 RES     
   34815 C1        1153.3917  -921.3599  -796.8506 C1            1 RES     
   34816 C1        1153.7011  -920.7371  -798.0722 C1            1 RES     
   34817 C1        1154.2101  -921.5278  -799.1040 C1            1 RES     
   34818 N4        1154.4956  -921.0640  -800.3477 N4            1 RES     
   34819 S2        1154.9873  -922.4351  -801.1288 S2            1 RES     
   34820 N4        1154.8659  -923.6133  -799.9732 N4            1 RES     
   34821 C1        1154.4050  -922.9175  -798.9044 C1            1 RES     
   34822 C1        1154.1081  -923.4851  -797.6681 C1            1 RES     
   34823 H5        1152.9859  -920.7743  -796.0302 H5            1 RES     
   34824 C0        1155.0496  -915.1575  -797.8281 C0            1 RES     
   34825 C0        1154.7563  -915.3615  -796.2937 C0            1 RES     
   34826 C0        1155.8180  -914.4745  -795.5532 C0            1 RES     
   34827 C0        1155.8201  -914.5318  -794.0205 C0            1 RES     
   34828 C0        1156.8707  -913.5812  -793.3995 C0            1 RES     
   34829 C0        1158.3439  -913.8855  -793.7503 C0            1 RES     
   34830 C0        1158.8041  -915.3181  -793.4278 C0            1 RES     
   34831 C0        1158.6206  -915.6913  -791.9460 C0            1 RES     
   34832 C0        1159.0282  -917.1393  -791.6382 C0            1 RES     
   34833 C0        1160.5373  -917.3904  -791.7969 C0            1 RES     
   34834 C0        1160.9502  -918.8099  -791.3764 C0            1 RES     
   34835 C0        1160.3671  -919.8989  -792.2778 C0            1 RES     
   34836 C0        1153.3107  -915.1273  -795.7455 C0            1 RES     
   34837 C0        1152.6964  -913.6948  -795.8026 C0            1 RES     
   34838 C0        1151.4111  -913.7392  -796.6346 C0            1 RES     
   34839 C0        1150.8136  -912.4150  -797.1016 C0            1 RES     
   34840 C0        1149.9974  -911.6415  -796.0763 C0            1 RES     
   34841 C0        1149.4540  -910.3736  -796.7680 C0            1 RES     
   34842 C0        1148.4519  -909.5785  -795.9279 C0            1 RES     
   34843 C0        1147.1334  -910.3299  -795.7321 C0            1 RES     
   34844 H6        1155.1151  -914.1053  -797.9390 H6            1 RES     
   34845 H6        1156.0775  -915.5690  -797.9454 H6            1 RES     
   34846 H6        1154.9712  -916.4301  -796.0688 H6            1 RES     
   34847 H6        1155.6713  -913.4105  -795.8409 H6            1 RES     
   34848 H6        1156.8242  -914.7826  -795.9098 H6            1 RES     
   34849 H6        1155.9842  -915.5737  -793.6782 H6            1 RES     
   34850 H6        1154.8355  -914.1913  -793.6413 H6            1 RES     
   34851 H6        1156.7519  -913.6093  -792.2966 H6            1 RES     
   34852 H6        1156.6512  -912.5366  -793.7131 H6            1 RES     
   34853 H6        1158.9860  -913.1658  -793.1953 H6            1 RES     
   34854 H6        1158.5168  -913.7017  -794.8322 H6            1 RES     
   34855 H6        1158.2405  -916.0350  -794.0614 H6            1 RES     
   34856 H6        1159.8759  -915.3905  -793.7062 H6            1 RES     
   34857 H6        1157.5452  -915.6114  -791.6871 H6            1 RES     
   34858 H6        1159.1893  -914.9890  -791.2979 H6            1 RES     
   34859 H6        1158.7522  -917.3478  -790.5815 H6            1 RES     
   34860 H6        1158.4411  -917.8183  -792.2916 H6            1 RES     
   34861 H6        1160.8608  -917.2197  -792.8446 H6            1 RES     
   34862 H6        1161.0775  -916.6730  -791.1415 H6            1 RES     
   34863 H6        1160.6457  -918.9948  -790.3230 H6            1 RES     
   34864 H6        1162.0581  -918.8781  -791.4324 H6            1 RES     
   34865 H6        1159.2599  -919.9179  -792.2248 H6            1 RES     
   34866 H6        1160.6832  -919.7348  -793.3299 H6            1 RES     
   34867 H6        1160.7406  -920.8900  -791.9452 H6            1 RES     
   34868 H6        1153.3024  -915.4360  -794.6782 H6            1 RES     
   34869 H6        1152.6358  -915.8741  -796.2159 H6            1 RES     
   34870 H6        1152.4371  -913.3352  -794.7816 H6            1 RES     
   34871 H6        1153.4251  -912.9850  -796.2442 H6            1 RES     
   34872 H6        1150.6394  -914.3977  -796.1832 H6            1 RES     
   34873 H6        1151.7268  -914.1955  -797.5486 H6            1 RES     
   34874 H6        1151.6077  -911.7931  -797.5219 H6            1 RES     
   34875 H6        1150.1161  -912.6625  -797.9339 H6            1 RES     
   34876 H6        1149.1661  -912.3028  -795.7522 H6            1 RES     
   34877 H6        1150.6112  -911.3654  -795.1930 H6            1 RES     
   34878 H6        1150.3200  -909.7169  -797.0109 H6            1 RES     
   34879 H6        1148.9538  -910.6376  -797.7276 H6            1 RES     
   34880 H6        1148.2198  -908.6400  -796.4779 H6            1 RES     
   34881 H6        1148.8985  -909.3101  -794.9474 H6            1 RES     
   34882 H6        1147.2793  -911.2631  -795.1533 H6            1 RES     
   34883 H6        1146.4192  -909.6867  -795.1790 H6            1 RES     
   34884 H6        1146.6862  -910.5814  -796.7198 H6            1 RES     
   34885 C0        1155.1350  -915.5584  -800.4093 C0            1 RES     
   34886 C0        1156.4029  -914.6099  -800.6075 C0            1 RES     
   34887 C0        1156.5636  -914.4034  -802.1514 C0            1 RES     
   34888 C0        1157.8803  -913.7385  -802.6013 C0            1 RES     
   34889 C0        1157.9852  -913.5337  -804.1229 C0            1 RES     
   34890 C0        1157.9167  -914.8130  -804.9759 C0            1 RES     
   34891 C0        1158.9248  -915.9091  -804.5924 C0            1 RES     
   34892 C0        1160.3892  -915.4390  -804.6433 C0            1 RES     
   34893 C0        1161.3835  -916.5444  -804.2525 C0            1 RES     
   34894 C0        1161.4197  -917.7028  -805.2654 C0            1 RES     
   34895 C0        1162.5000  -918.7473  -804.9444 C0            1 RES     
   34896 C0        1162.2427  -919.4999  -803.6388 C0            1 RES     
   34897 C0        1156.6701  -913.2600  -799.8180 C0            1 RES     
   34898 C0        1155.7848  -911.9980  -800.0219 C0            1 RES     
   34899 C0        1154.8487  -911.7396  -798.8277 C0            1 RES     
   34900 C0        1153.8935  -910.5642  -798.9529 C0            1 RES     
   34901 C0        1154.4957  -909.1704  -798.8440 C0            1 RES     
   34902 C0        1153.3210  -908.1710  -798.8253 C0            1 RES     
   34903 C0        1153.7269  -906.7192  -798.5648 C0            1 RES     
   34904 C0        1154.2569  -906.5101  -797.1455 C0            1 RES     
   34905 H6        1154.4321  -915.3952  -801.2592 H6            1 RES     
   34906 H6        1155.5154  -916.5758  -800.6547 H6            1 RES     
   34907 H6        1157.2573  -915.2397  -800.2677 H6            1 RES     
   34908 H6        1155.7136  -913.7934  -802.5265 H6            1 RES     
   34909 H6        1156.5068  -915.4023  -802.6349 H6            1 RES     
   34910 H6        1158.7389  -914.3392  -802.2345 H6            1 RES     
   34911 H6        1157.9599  -912.7180  -802.1792 H6            1 RES     
   34912 H6        1158.9458  -913.0150  -804.3285 H6            1 RES     
   34913 H6        1157.1736  -912.8503  -804.4567 H6            1 RES     
   34914 H6        1158.0787  -914.5233  -806.0372 H6            1 RES     
   34915 H6        1156.8954  -915.2449  -804.9075 H6            1 RES     
   34916 H6        1158.6961  -916.2835  -803.5717 H6            1 RES     
   34917 H6        1158.7698  -916.7465  -805.3029 H6            1 RES     
   34918 H6        1160.5267  -914.6131  -803.9145 H6            1 RES     
   34919 H6        1160.6352  -915.0534  -805.6564 H6            1 RES     
   34920 H6        1162.3961  -916.0872  -804.2129 H6            1 RES     
   34921 H6        1161.1283  -916.9131  -803.2363 H6            1 RES     
   34922 H6        1160.4370  -918.2151  -805.3198 H6            1 RES     
   34923 H6        1161.6491  -917.2783  -806.2671 H6            1 RES     
   34924 H6        1163.4972  -918.2576  -804.9031 H6            1 RES     
   34925 H6        1162.5142  -919.4914  -805.7697 H6            1 RES     
   34926 H6        1162.2696  -918.8159  -802.7667 H6            1 RES     
   34927 H6        1161.2568  -920.0102  -803.6777 H6            1 RES     
   34928 H6        1163.0330  -920.2665  -803.4961 H6            1 RES     
   34929 H6        1157.6874  -912.9548  -800.1245 H6            1 RES     
   34930 H6        1156.8960  -913.4184  -798.7468 H6            1 RES     
   34931 H6        1156.4576  -911.1124  -800.0401 H6            1 RES     
   34932 H6        1155.2588  -912.0356  -800.9973 H6            1 RES     
   34933 H6        1155.4396  -911.6485  -797.8881 H6            1 RES     
   34934 H6        1154.1650  -912.5731  -798.7117 H6            1 RES     
   34935 H6        1153.2839  -910.6690  -799.8766 H6            1 RES     
   34936 H6        1153.2337  -910.6433  -798.0733 H6            1 RES     
   34937 H6        1155.0655  -909.1210  -797.8920 H6            1 RES     
   34938 H6        1155.1806  -908.9613  -799.6920 H6            1 RES     
   34939 H6        1152.8046  -908.2281  -799.8088 H6            1 RES     
   34940 H6        1152.5827  -908.4572  -798.0411 H6            1 RES     
   34941 H6        1152.8125  -906.0957  -798.6741 H6            1 RES     
   34942 H6        1154.4726  -906.3907  -799.3157 H6            1 RES     
   34943 H6        1155.1961  -907.0734  -796.9764 H6            1 RES     
   34944 H6        1154.4655  -905.4321  -796.9877 H6            1 RES     
   34945 H6        1153.4984  -906.8340  -796.3995 H6            1 RES     
   34946 C0        1156.3675  -928.2610  -796.3781 C0            1 RES     
   34947 C1        1155.4084  -927.1165  -796.7728 C1            1 RES     
   34948 C1        1154.2368  -927.5764  -797.2837 C1            1 RES     
   34949 S2        1153.2114  -926.3611  -797.8071 S2            1 RES     
   34950 C1        1154.3332  -925.1491  -797.4027 C1            1 RES     
   34951 C1        1155.4943  -925.7174  -796.8672 C1            1 RES     
   34952 C1        1154.2802  -928.9868  -797.3232 C1            1 RES     
   34953 C1        1155.5023  -929.4091  -796.9000 C1            1 RES     
   34954 C1        1155.6674  -930.7811  -797.0475 C1            1 RES     
   34955 C1        1154.5001  -931.3669  -797.5656 C1            1 RES     
   34956 S2        1153.2890  -930.2124  -797.8545 S2            1 RES     
   34957 H3        1156.3507  -925.1191  -796.6206 H3            1 RES     
   34958 H3        1156.5741  -931.3206  -796.8013 H3            1 RES     
   34959 N4        1153.2679  -934.9054  -797.6707 N4            1 RES     
   34960 C1        1153.4411  -933.6116  -797.2704 C1            1 RES     
   34961 C1        1154.3347  -932.7647  -797.9486 C1            1 RES     
   34962 C1        1155.0187  -933.2774  -799.0522 C1            1 RES     
   34963 N4        1155.8644  -932.5513  -799.8276 N4            1 RES     
   34964 S2        1156.3061  -933.6458  -800.9846 S2            1 RES     
   34965 N4        1155.4832  -935.0187  -800.5645 N4            1 RES     
   34966 C1        1154.8065  -934.6183  -799.4598 C1            1 RES     
   34967 C1        1153.9307  -935.4274  -798.7407 C1            1 RES     
   34968 H5        1152.8867  -933.2409  -796.4126 H5            1 RES     
   34969 C0        1156.6789  -928.5232  -794.8625 C0            1 RES     
   34970 C0        1155.7698  -929.1225  -793.7239 C0            1 RES     
   34971 C0        1156.6236  -929.0013  -792.4129 C0            1 RES     
   34972 C0        1156.0114  -929.5814  -791.1319 C0            1 RES     
   34973 C0        1156.9162  -929.3599  -789.8969 C0            1 RES     
   34974 C0        1158.3015  -930.0412  -789.9471 C0            1 RES     
   34975 C0        1158.2684  -931.5588  -790.1996 C0            1 RES     
   34976 C0        1157.4406  -932.3263  -789.1535 C0            1 RES     
   34977 C0        1157.3628  -933.8329  -789.4393 C0            1 RES     
   34978 C0        1158.7167  -934.5479  -789.2924 C0            1 RES     
   34979 C0        1158.6058  -936.0708  -789.4678 C0            1 RES     
   34980 C0        1158.1977  -936.4862  -790.8817 C0            1 RES     
   34981 C0        1154.3161  -928.5801  -793.5299 C0            1 RES     
   34982 C0        1154.1075  -927.0978  -793.0917 C0            1 RES     
   34983 C0        1153.2767  -926.3777  -794.1581 C0            1 RES     
   34984 C0        1153.2199  -924.8533  -794.1138 C0            1 RES     
   34985 C0        1152.2604  -924.2407  -793.1041 C0            1 RES     
   34986 C0        1152.3275  -922.7072  -793.2626 C0            1 RES     
   34987 C0        1151.2794  -921.9437  -792.4497 C0            1 RES     
   34988 C0        1149.8591  -922.1774  -792.9687 C0            1 RES     
   34989 H6        1157.0141  -927.5999  -794.4638 H6            1 RES     
   34990 H6        1157.5514  -929.2146  -794.8790 H6            1 RES     
   34991 H6        1155.6367  -930.2020  -793.9593 H6            1 RES     
   34992 H6        1156.8413  -927.9289  -792.2152 H6            1 RES     
   34993 H6        1157.5935  -929.5127  -792.5922 H6            1 RES     
   34994 H6        1155.7927  -930.6600  -791.2685 H6            1 RES     
   34995 H6        1155.0590  -929.0577  -790.9129 H6            1 RES     
   34996 H6        1156.3712  -929.7219  -789.0007 H6            1 RES     
   34997 H6        1157.0748  -928.2686  -789.7492 H6            1 RES     
   34998 H6        1158.8165  -929.8466  -788.9799 H6            1 RES     
   34999 H6        1158.9212  -929.5717  -790.7407 H6            1 RES     
   35000 H6        1157.8551  -931.7526  -791.2118 H6            1 RES     
   35001 H6        1159.3185  -931.9178  -790.1885 H6            1 RES     
   35002 H6        1156.3967  -931.9528  -789.1789 H6            1 RES     
   35003 H6        1157.8496  -932.1521  -788.1342 H6            1 RES     
   35004 H6        1156.6556  -934.2772  -788.7054 H6            1 RES     
   35005 H6        1156.9447  -933.9784  -790.4575 H6            1 RES     
   35006 H6        1159.4544  -934.1566  -790.0232 H6            1 RES     
   35007 H6        1159.1007  -934.3526  -788.2674 H6            1 RES     
   35008 H6        1157.8797  -936.4831  -788.7335 H6            1 RES     
   35009 H6        1159.6017  -936.5162  -789.2557 H6            1 RES     
   35010 H6        1157.1843  -936.1153  -791.1356 H6            1 RES     
   35011 H6        1158.9290  -936.0965  -791.6214 H6            1 RES     
   35012 H6        1158.1810  -937.5942  -790.9486 H6            1 RES     
   35013 H6        1153.8215  -929.2127  -792.7621 H6            1 RES     
   35014 H6        1153.7327  -928.8153  -794.4458 H6            1 RES     
   35015 H6        1153.5550  -927.0452  -792.1268 H6            1 RES     
   35016 H6        1155.0885  -926.5989  -792.9558 H6            1 RES     
   35017 H6        1152.2647  -926.8199  -794.2738 H6            1 RES     
   35018 H6        1153.8160  -926.5715  -795.0608 H6            1 RES     
   35019 H6        1154.2315  -924.4617  -793.9824 H6            1 RES     
   35020 H6        1152.8689  -924.5238  -795.1182 H6            1 RES     
   35021 H6        1151.2445  -924.6194  -793.3451 H6            1 RES     
   35022 H6        1152.5229  -924.5325  -792.0653 H6            1 RES     
   35023 H6        1153.3414  -922.3731  -792.9454 H6            1 RES     
   35024 H6        1152.1991  -922.4201  -794.3312 H6            1 RES     
   35025 H6        1151.4960  -920.8577  -792.5548 H6            1 RES     
   35026 H6        1151.3529  -922.2144  -791.3754 H6            1 RES     
   35027 H6        1149.5555  -923.2371  -792.8592 H6            1 RES     
   35028 H6        1149.1470  -921.5514  -792.3937 H6            1 RES     
   35029 H6        1149.7917  -921.8893  -794.0417 H6            1 RES     
   35030 C0        1157.6792  -928.0083  -797.2215 C0            1 RES     
   35031 C0        1159.0989  -927.5849  -796.6287 C0            1 RES     
   35032 C0        1159.8940  -926.9315  -797.8091 C0            1 RES     
   35033 C0        1161.3932  -926.6841  -797.5463 C0            1 RES     
   35034 C0        1162.1292  -926.0195  -798.7230 C0            1 RES     
   35035 C0        1162.1194  -926.8045  -800.0469 C0            1 RES     
   35036 C0        1162.6260  -928.2533  -799.9514 C0            1 RES     
   35037 C0        1164.0575  -928.3662  -799.3979 C0            1 RES     
   35038 C0        1164.5468  -929.8205  -799.3041 C0            1 RES     
   35039 C0        1164.7199  -930.4841  -800.6820 C0            1 RES     
   35040 C0        1165.3270  -931.8932  -800.5975 C0            1 RES     
   35041 C0        1164.4183  -932.9005  -799.8927 C0            1 RES     
   35042 C0        1159.3268  -926.7897  -795.2750 C0            1 RES     
   35043 C0        1158.8961  -925.3047  -795.1101 C0            1 RES     
   35044 C0        1157.6490  -925.1514  -794.2209 C0            1 RES     
   35045 C0        1157.1059  -923.7428  -794.0464 C0            1 RES     
   35046 C0        1157.9095  -922.7970  -793.1650 C0            1 RES     
   35047 C0        1157.0749  -921.5098  -793.0051 C0            1 RES     
   35048 C0        1157.6567  -920.4945  -792.0198 C0            1 RES     
   35049 C0        1157.6193  -920.9988  -790.5764 C0            1 RES     
   35050 H6        1157.4213  -927.3160  -798.0565 H6            1 RES     
   35051 H6        1157.8896  -928.9417  -797.7912 H6            1 RES     
   35052 H6        1159.5888  -928.5595  -796.3998 H6            1 RES     
   35053 H6        1159.4174  -925.9635  -798.0758 H6            1 RES     
   35054 H6        1159.8116  -927.6065  -798.6880 H6            1 RES     
   35055 H6        1161.8827  -927.6443  -797.2802 H6            1 RES     
   35056 H6        1161.5248  -925.9776  -796.7040 H6            1 RES     
   35057 H6        1163.1825  -925.8522  -798.4116 H6            1 RES     
   35058 H6        1161.6871  -925.0164  -798.9113 H6            1 RES     
   35059 H6        1162.7446  -926.2466  -800.7779 H6            1 RES     
   35060 H6        1161.0852  -926.8271  -800.4518 H6            1 RES     
   35061 H6        1161.9385  -928.8459  -799.3108 H6            1 RES     
   35062 H6        1162.5809  -928.6742  -800.9765 H6            1 RES     
   35063 H6        1164.0772  -927.9551  -798.3670 H6            1 RES     
   35064 H6        1164.7600  -927.7729  -800.0224 H6            1 RES     
   35065 H6        1165.5366  -929.8102  -798.7978 H6            1 RES     
   35066 H6        1163.8386  -930.3968  -798.6717 H6            1 RES     
   35067 H6        1163.7506  -930.5478  -801.2179 H6            1 RES     
   35068 H6        1165.4119  -929.8551  -801.2835 H6            1 RES     
   35069 H6        1166.3095  -931.8498  -800.0791 H6            1 RES     
   35070 H6        1165.4986  -932.2559  -801.6339 H6            1 RES     
   35071 H6        1164.2516  -932.6210  -798.8328 H6            1 RES     
   35072 H6        1163.4403  -932.9666  -800.4154 H6            1 RES     
   35073 H6        1164.8980  -933.9017  -799.9105 H6            1 RES     
   35074 H6        1160.4228  -926.7928  -795.1312 H6            1 RES     
   35075 H6        1159.0730  -927.3797  -794.3743 H6            1 RES     
   35076 H6        1159.7000  -924.7799  -794.5484 H6            1 RES     
   35077 H6        1158.8009  -924.8072  -796.0965 H6            1 RES     
   35078 H6        1157.8280  -925.6141  -793.2238 H6            1 RES     
   35079 H6        1156.8085  -925.6610  -794.6785 H6            1 RES     
   35080 H6        1156.9009  -923.2906  -795.0411 H6            1 RES     
   35081 H6        1156.1541  -923.8735  -793.5056 H6            1 RES     
   35082 H6        1158.0556  -923.2922  -792.1818 H6            1 RES     
   35083 H6        1158.9000  -922.5741  -793.6135 H6            1 RES     
   35084 H6        1156.9872  -921.0299  -794.0047 H6            1 RES     
   35085 H6        1156.0447  -921.7577  -792.6599 H6            1 RES     
   35086 H6        1157.0215  -919.5830  -792.0708 H6            1 RES     
   35087 H6        1158.6898  -920.2242  -792.3155 H6            1 RES     
   35088 H6        1158.2666  -921.8879  -790.4407 H6            1 RES     
   35089 H6        1157.9825  -920.1985  -789.8994 H6            1 RES     
   35090 H6        1156.5776  -921.2586  -790.2861 H6            1 RES     
   35091 C0        1154.3834  -940.8268  -799.2091 C0            1 RES     
   35092 C1        1153.9356  -939.3502  -799.2793 C1            1 RES     
   35093 C1        1152.9883  -939.1417  -800.2302 C1            1 RES     
   35094 S2        1152.5475  -937.5352  -800.3955 S2            1 RES     
   35095 C1        1153.6588  -937.0391  -799.2082 C1            1 RES     
   35096 C1        1154.3592  -938.1404  -798.7043 C1            1 RES     
   35097 C1        1152.7300  -940.3623  -800.8906 C1            1 RES     
   35098 C1        1153.5613  -941.3211  -800.4003 C1            1 RES     
   35099 C1        1153.4627  -942.5158  -801.1034 C1            1 RES     
   35100 C1        1152.4941  -942.4151  -802.1163 C1            1 RES     
   35101 S2        1151.7821  -940.8741  -802.1580 S2            1 RES     
   35102 H3        1155.1597  -938.0227  -797.9987 H3            1 RES     
   35103 H3        1154.0560  -943.3992  -800.8998 H3            1 RES     
   35104 N4        1150.6513  -944.9840  -804.1300 N4            1 RES     
   35105 C1        1150.9356  -944.0683  -803.1580 C1            1 RES     
   35106 C1        1152.1870  -943.4295  -803.1185 C1            1 RES     
   35107 C1        1153.1171  -943.7414  -804.1117 C1            1 RES     
   35108 N4        1154.3372  -943.1559  -804.2222 N4            1 RES     
   35109 S2        1154.9430  -943.8632  -805.5877 S2            1 RES     
   35110 N4        1153.7394  -944.8929  -806.0666 N4            1 RES     
   35111 C1        1152.7905  -944.6812  -805.1214 C1            1 RES     
   35112 C1        1151.5472  -945.3078  -805.1043 C1            1 RES     
   35113 H5        1150.1862  -943.8415  -802.4046 H5            1 RES     
   35114 C0        1154.0086  -941.6913  -797.9542 C0            1 RES     
   35115 C0        1152.6175  -942.2697  -797.4933 C0            1 RES     
   35116 C0        1152.8921  -942.9311  -796.0971 C0            1 RES     
   35117 C0        1151.7144  -943.6508  -795.4283 C0            1 RES     
   35118 C0        1152.0866  -944.2180  -794.0381 C0            1 RES     
   35119 C0        1153.1921  -945.2967  -794.0256 C0            1 RES     
   35120 C0        1152.9254  -946.5083  -794.9361 C0            1 RES     
   35121 C0        1151.6059  -947.2297  -794.6089 C0            1 RES     
   35122 C0        1151.3148  -948.4038  -795.5546 C0            1 RES     
   35123 C0        1152.3073  -949.5682  -795.3975 C0            1 RES     
   35124 C0        1151.9398  -950.7825  -796.2651 C0            1 RES     
   35125 C0        1152.0382  -950.5030  -797.7653 C0            1 RES     
   35126 C0        1151.3638  -941.3356  -797.4640 C0            1 RES     
   35127 C0        1151.3340  -940.1303  -796.4746 C0            1 RES     
   35128 C0        1151.1703  -938.8351  -797.2757 C0            1 RES     
   35129 C0        1151.4399  -937.5128  -796.5632 C0            1 RES     
   35130 C0        1150.3229  -936.9811  -795.6771 C0            1 RES     
   35131 C0        1150.7848  -935.6262  -795.1009 C0            1 RES     
   35132 C0        1149.6994  -934.8638  -794.3375 C0            1 RES     
   35133 C0        1148.5833  -934.3659  -795.2582 C0            1 RES     
   35134 H6        1154.3559  -941.1544  -797.1087 H6            1 RES     
   35135 H6        1154.6408  -942.6026  -798.0521 H6            1 RES     
   35136 H6        1152.3518  -943.0721  -798.2173 H6            1 RES     
   35137 H6        1153.2465  -942.1528  -795.3863 H6            1 RES     
   35138 H6        1153.7150  -943.6662  -796.2268 H6            1 RES     
   35139 H6        1151.3338  -944.4552  -796.0900 H6            1 RES     
   35140 H6        1150.8943  -942.9252  -795.2546 H6            1 RES     
   35141 H6        1151.1682  -944.6409  -793.5810 H6            1 RES     
   35142 H6        1152.4120  -943.3845  -793.3768 H6            1 RES     
   35143 H6        1153.3155  -945.6517  -792.9781 H6            1 RES     
   35144 H6        1154.1607  -944.8437  -794.3271 H6            1 RES     
   35145 H6        1152.9106  -946.1742  -795.9950 H6            1 RES     
   35146 H6        1153.7790  -947.2069  -794.8136 H6            1 RES     
   35147 H6        1150.7666  -946.5158  -794.7354 H6            1 RES     
   35148 H6        1151.6097  -947.5814  -793.5540 H6            1 RES     
   35149 H6        1150.2971  -948.7823  -795.3156 H6            1 RES     
   35150 H6        1151.3088  -948.0243  -796.5979 H6            1 RES     
   35151 H6        1153.3394  -949.2478  -795.6499 H6            1 RES     
   35152 H6        1152.2913  -949.8947  -794.3348 H6            1 RES     
   35153 H6        1150.9121  -951.1266  -796.0163 H6            1 RES     
   35154 H6        1152.6470  -951.6055  -796.0247 H6            1 RES     
   35155 H6        1151.3153  -949.7235  -798.0798 H6            1 RES     
   35156 H6        1153.0677  -950.1785  -798.0276 H6            1 RES     
   35157 H6        1151.8041  -951.4309  -798.3280 H6            1 RES     
   35158 H6        1150.4808  -941.9665  -797.2255 H6            1 RES     
   35159 H6        1151.1502  -941.0084  -798.5041 H6            1 RES     
   35160 H6        1150.4738  -940.2160  -795.7733 H6            1 RES     
   35161 H6        1152.2670  -940.1057  -795.8757 H6            1 RES     
   35162 H6        1150.2143  -938.8063  -797.8398 H6            1 RES     
   35163 H6        1151.9630  -938.8880  -797.9912 H6            1 RES     
   35164 H6        1152.3783  -937.5906  -796.0086 H6            1 RES     
   35165 H6        1151.5937  -936.7523  -797.3623 H6            1 RES     
   35166 H6        1149.4267  -936.8528  -796.3204 H6            1 RES     
   35167 H6        1150.0850  -937.6886  -794.8548 H6            1 RES     
   35168 H6        1151.6394  -935.8188  -794.4133 H6            1 RES     
   35169 H6        1151.1530  -934.9618  -795.9155 H6            1 RES     
   35170 H6        1150.1745  -933.9687  -793.8790 H6            1 RES     
   35171 H6        1149.2834  -935.4960  -793.5251 H6            1 RES     
   35172 H6        1148.0345  -935.2079  -795.7240 H6            1 RES     
   35173 H6        1147.8606  -933.7630  -794.6717 H6            1 RES     
   35174 H6        1149.0080  -933.7213  -796.0601 H6            1 RES     
   35175 C0        1155.9413  -940.7974  -799.4695 C0            1 RES     
   35176 C0        1157.0698  -941.1568  -798.4002 C0            1 RES     
   35177 C0        1158.3876  -940.4755  -798.9021 C0            1 RES     
   35178 C0        1159.6777  -940.9019  -798.1728 C0            1 RES     
   35179 C0        1160.9437  -940.1905  -798.6821 C0            1 RES     
   35180 C0        1161.2804  -940.4074  -800.1682 C0            1 RES     
   35181 C0        1161.3743  -941.8775  -800.6093 C0            1 RES     
   35182 C0        1162.4100  -942.6908  -799.8131 C0            1 RES     
   35183 C0        1162.4878  -944.1588  -800.2627 C0            1 RES     
   35184 C0        1163.0360  -944.3191  -801.6920 C0            1 RES     
   35185 C0        1163.2326  -945.7880  -802.0982 C0            1 RES     
   35186 C0        1161.9216  -946.5689  -802.1915 C0            1 RES     
   35187 C0        1156.9183  -941.0213  -796.8268 C0            1 RES     
   35188 C0        1156.7981  -939.6377  -796.1274 C0            1 RES     
   35189 C0        1155.3699  -939.3559  -795.6273 C0            1 RES     
   35190 C0        1155.1287  -938.0004  -794.9838 C0            1 RES     
   35191 C0        1155.7097  -937.7826  -793.5939 C0            1 RES     
   35192 C0        1155.1871  -936.4202  -793.0942 C0            1 RES     
   35193 C0        1155.5449  -936.0969  -791.6424 C0            1 RES     
   35194 C0        1154.8334  -937.0179  -790.6500 C0            1 RES     
   35195 H6        1156.1921  -939.8162  -799.9357 H6            1 RES     
   35196 H6        1156.1458  -941.4838  -800.3221 H6            1 RES     
   35197 H6        1157.2015  -942.2572  -798.5175 H6            1 RES     
   35198 H6        1158.2812  -939.3725  -798.8166 H6            1 RES     
   35199 H6        1158.5094  -940.7245  -799.9782 H6            1 RES     
   35200 H6        1159.7975  -942.0027  -798.2520 H6            1 RES     
   35201 H6        1159.6211  -940.6310  -797.1007 H6            1 RES     
   35202 H6        1161.7988  -940.5396  -798.0646 H6            1 RES     
   35203 H6        1160.8451  -939.0969  -798.5047 H6            1 RES     
   35204 H6        1162.2490  -939.9017  -800.3748 H6            1 RES     
   35205 H6        1160.5111  -939.9079  -800.7949 H6            1 RES     
   35206 H6        1160.3778  -942.3590  -800.5118 H6            1 RES     
   35207 H6        1161.6429  -941.8701  -801.6854 H6            1 RES     
   35208 H6        1162.1142  -942.6993  -798.7433 H6            1 RES     
   35209 H6        1163.4136  -942.2197  -799.8927 H6            1 RES     
   35210 H6        1163.1750  -944.6876  -799.5668 H6            1 RES     
   35211 H6        1161.4797  -944.6158  -800.1702 H6            1 RES     
   35212 H6        1162.3668  -943.8337  -802.4319 H6            1 RES     
   35213 H6        1164.0291  -943.8212  -801.7386 H6            1 RES     
   35214 H6        1163.9159  -946.2896  -801.3790 H6            1 RES     
   35215 H6        1163.7121  -945.8057  -803.1006 H6            1 RES     
   35216 H6        1161.4189  -946.6328  -801.2055 H6            1 RES     
   35217 H6        1161.2390  -946.0870  -802.9236 H6            1 RES     
   35218 H6        1162.1350  -947.6033  -802.5339 H6            1 RES     
   35219 H6        1157.8397  -941.4753  -796.4181 H6            1 RES     
   35220 H6        1156.2077  -941.7495  -796.3927 H6            1 RES     
   35221 H6        1157.4117  -939.6731  -795.2003 H6            1 RES     
   35222 H6        1157.2104  -938.8321  -796.7681 H6            1 RES     
   35223 H6        1155.0360  -940.1660  -794.9398 H6            1 RES     
   35224 H6        1154.6862  -939.3300  -796.4685 H6            1 RES     
   35225 H6        1155.4361  -937.1908  -795.6809 H6            1 RES     
   35226 H6        1154.0378  -937.9517  -794.8317 H6            1 RES     
   35227 H6        1155.3447  -938.6038  -792.9415 H6            1 RES     
   35228 H6        1156.8194  -937.7978  -793.6155 H6            1 RES     
   35229 H6        1155.6074  -935.6279  -793.7521 H6            1 RES     
   35230 H6        1154.0771  -936.3763  -793.1824 H6            1 RES     
   35231 H6        1155.1997  -935.0592  -791.4401 H6            1 RES     
   35232 H6        1156.6431  -936.1396  -791.5011 H6            1 RES     
   35233 H6        1155.1610  -938.0700  -790.7668 H6            1 RES     
   35234 H6        1155.0693  -936.6937  -789.6157 H6            1 RES     
   35235 H6        1153.7320  -936.9611  -790.7935 H6            1 RES     
   35236 C0        1150.9389  -949.9760  -807.8276 C0            1 RES     
   35237 C1        1150.8939  -948.5121  -807.3368 C1            1 RES     
   35238 C1        1150.4674  -947.6561  -808.3015 C1            1 RES     
   35239 S2        1150.4947  -946.0497  -807.8313 S2            1 RES     
   35240 C1        1151.1308  -946.4388  -806.3033 C1            1 RES     
   35241 C1        1151.3144  -947.8211  -806.1883 C1            1 RES     
   35242 C1        1150.2256  -948.3876  -809.4844 C1            1 RES     
   35243 C1        1150.5629  -949.6900  -809.2822 C1            1 RES     
   35244 C1        1150.4861  -950.4427  -810.4478 C1            1 RES     
   35245 C1        1150.0412  -949.6507  -811.5197 C1            1 RES     
   35246 S2        1149.7632  -948.0443  -811.0449 S2            1 RES     
   35247 H3        1151.7782  -948.2565  -805.3236 H3            1 RES     
   35248 H3        1150.7401  -951.4936  -810.5183 H3            1 RES     
   35249 N4        1148.6170  -950.4985  -814.8818 N4            1 RES     
   35250 C1        1148.6923  -950.1476  -813.5644 C1            1 RES     
   35251 C1        1149.9355  -950.0680  -812.9134 C1            1 RES     
   35252 C1        1151.0864  -950.3347  -813.6571 C1            1 RES     
   35253 N4        1152.3486  -950.2377  -813.1663 N4            1 RES     
   35254 S2        1153.2686  -950.5985  -814.4913 S2            1 RES     
   35255 N4        1152.1539  -950.8815  -815.6811 N4            1 RES     
   35256 C1        1150.9828  -950.6778  -815.0285 C1            1 RES     
   35257 C1        1149.7274  -950.7695  -815.6236 C1            1 RES     
   35258 H5        1147.7779  -949.9377  -813.0163 H5            1 RES     
   35259 C0        1149.9204  -951.0194  -807.2474 C0            1 RES     
   35260 C0        1148.3696  -951.1687  -807.4812 C0            1 RES     
   35261 C0        1147.9203  -952.3234  -806.5183 C0            1 RES     
   35262 C0        1146.4471  -952.7450  -806.5828 C0            1 RES     
   35263 C0        1146.1082  -953.8519  -805.5568 C0            1 RES     
   35264 C0        1146.8512  -955.1931  -805.7442 C0            1 RES     
   35265 C0        1146.7020  -955.8272  -807.1384 C0            1 RES     
   35266 C0        1145.2358  -956.0801  -807.5321 C0            1 RES     
   35267 C0        1145.0868  -956.6608  -808.9456 C0            1 RES     
   35268 C0        1145.6533  -958.0845  -809.0782 C0            1 RES     
   35269 C0        1145.3966  -958.6989  -810.4635 C0            1 RES     
   35270 C0        1146.1350  -957.9748  -811.5898 C0            1 RES     
   35271 C0        1147.4458  -949.9127  -807.3625 C0            1 RES     
   35272 C0        1147.2980  -949.2026  -805.9817 C0            1 RES     
   35273 C0        1147.7531  -947.7468  -806.1215 C0            1 RES     
   35274 C0        1148.0072  -946.9497  -804.8452 C0            1 RES     
   35275 C0        1146.7802  -946.3875  -804.1425 C0            1 RES     
   35276 C0        1147.2666  -945.5855  -802.9172 C0            1 RES     
   35277 C0        1146.1670  -944.7932  -802.2064 C0            1 RES     
   35278 C0        1145.6422  -943.6358  -803.0587 C0            1 RES     
   35279 H6        1150.0176  -950.9751  -806.1927 H6            1 RES     
   35280 H6        1150.3213  -952.0043  -807.5773 H6            1 RES     
   35281 H6        1148.2387  -951.5142  -808.5310 H6            1 RES     
   35282 H6        1148.1302  -952.0267  -805.4674 H6            1 RES     
   35283 H6        1148.5430  -953.2151  -806.7456 H6            1 RES     
   35284 H6        1146.1887  -953.0716  -807.6107 H6            1 RES     
   35285 H6        1145.8075  -951.8778  -806.3217 H6            1 RES     
   35286 H6        1145.0153  -954.0388  -805.5995 H6            1 RES     
   35287 H6        1146.3239  -953.4797  -804.5308 H6            1 RES     
   35288 H6        1146.4717  -955.9071  -804.9796 H6            1 RES     
   35289 H6        1147.9346  -955.0524  -805.5421 H6            1 RES     
   35290 H6        1147.1783  -955.1671  -807.8937 H6            1 RES     
   35291 H6        1147.2611  -956.7858  -807.1261 H6            1 RES     
   35292 H6        1144.6943  -955.1122  -807.5371 H6            1 RES     
   35293 H6        1144.7473  -956.7501  -806.7910 H6            1 RES     
   35294 H6        1144.0006  -956.6975  -809.1802 H6            1 RES     
   35295 H6        1145.5750  -955.9700  -809.6648 H6            1 RES     
   35296 H6        1146.7446  -958.0986  -808.8776 H6            1 RES     
   35297 H6        1145.1497  -958.7281  -808.3243 H6            1 RES     
   35298 H6        1144.3053  -958.7056  -810.6766 H6            1 RES     
   35299 H6        1145.7512  -959.7520  -810.4453 H6            1 RES     
   35300 H6        1145.7858  -956.9278  -811.6949 H6            1 RES     
   35301 H6        1147.2288  -957.9809  -811.3965 H6            1 RES     
   35302 H6        1145.9412  -958.4960  -812.5506 H6            1 RES     
   35303 H6        1146.4242  -950.2166  -807.6763 H6            1 RES     
   35304 H6        1147.7357  -949.1921  -808.1570 H6            1 RES     
   35305 H6        1146.2359  -949.2040  -805.6484 H6            1 RES     
   35306 H6        1147.9013  -949.7303  -805.2153 H6            1 RES     
   35307 H6        1147.1275  -947.1767  -806.8401 H6            1 RES     
   35308 H6        1148.7299  -947.8355  -806.5474 H6            1 RES     
   35309 H6        1148.6101  -947.5524  -804.1615 H6            1 RES     
   35310 H6        1148.6266  -946.0728  -805.1419 H6            1 RES     
   35311 H6        1146.2609  -945.7259  -804.8679 H6            1 RES     
   35312 H6        1146.0884  -947.1958  -803.8241 H6            1 RES     
   35313 H6        1147.7171  -946.3027  -802.1941 H6            1 RES     
   35314 H6        1148.0621  -944.8648  -803.2143 H6            1 RES     
   35315 H6        1146.6095  -944.3526  -801.2859 H6            1 RES     
   35316 H6        1145.3368  -945.4678  -801.9090 H6            1 RES     
   35317 H6        1145.1485  -944.0011  -803.9807 H6            1 RES     
   35318 H6        1144.9005  -943.0531  -802.4756 H6            1 RES     
   35319 H6        1146.4788  -942.9574  -803.3391 H6            1 RES     
   35320 C0        1152.4384  -950.4313  -807.6275 C0            1 RES     
   35321 C0        1152.9467  -951.5249  -806.5826 C0            1 RES     
   35322 C0        1154.4709  -951.2456  -806.3565 C0            1 RES     
   35323 C0        1155.2420  -952.3387  -805.5893 C0            1 RES     
   35324 C0        1156.7296  -952.0120  -805.3694 C0            1 RES     
   35325 C0        1157.5653  -951.8088  -806.6458 C0            1 RES     
   35326 C0        1157.4965  -952.9606  -807.6623 C0            1 RES     
   35327 C0        1157.9284  -954.3179  -807.0799 C0            1 RES     
   35328 C0        1157.8491  -955.4591  -808.1068 C0            1 RES     
   35329 C0        1158.8637  -955.3043  -809.2538 C0            1 RES     
   35330 C0        1158.8732  -956.5047  -810.2130 C0            1 RES     
   35331 C0        1157.5665  -956.6667  -810.9898 C0            1 RES     
   35332 C0        1152.2240  -951.8964  -805.2200 C0            1 RES     
   35333 C0        1152.1488  -950.8990  -804.0294 C0            1 RES     
   35334 C0        1150.7400  -950.3052  -803.8504 C0            1 RES     
   35335 C0        1150.5725  -949.2683  -802.7519 C0            1 RES     
   35336 C0        1150.5941  -949.7737  -801.3162 C0            1 RES     
   35337 C0        1150.2334  -948.5781  -800.4110 C0            1 RES     
   35338 C0        1150.0547  -948.9319  -798.9335 C0            1 RES     
   35339 C0        1148.8261  -949.8099  -798.6910 C0            1 RES     
   35340 H6        1153.0625  -949.5143  -807.5151 H6            1 RES     
   35341 H6        1152.8034  -950.8044  -808.6111 H6            1 RES     
   35342 H6        1152.8664  -952.4832  -807.1459 H6            1 RES     
   35343 H6        1154.5868  -950.2834  -805.8124 H6            1 RES     
   35344 H6        1154.9467  -951.1333  -807.3544 H6            1 RES     
   35345 H6        1155.1362  -953.3062  -806.1234 H6            1 RES     
   35346 H6        1154.8309  -952.4547  -804.5678 H6            1 RES     
   35347 H6        1157.1734  -952.8403  -804.7767 H6            1 RES     
   35348 H6        1156.8143  -951.0925  -804.7493 H6            1 RES     
   35349 H6        1158.6231  -951.6554  -806.3391 H6            1 RES     
   35350 H6        1157.2350  -950.8788  -807.1559 H6            1 RES     
   35351 H6        1156.4619  -953.0452  -808.0584 H6            1 RES     
   35352 H6        1158.1601  -952.6807  -808.5057 H6            1 RES     
   35353 H6        1157.2427  -954.5868  -806.2495 H6            1 RES     
   35354 H6        1158.9600  -954.2512  -806.6713 H6            1 RES     
   35355 H6        1158.0724  -956.4083  -807.5726 H6            1 RES     
   35356 H6        1156.8116  -955.5166  -808.4992 H6            1 RES     
   35357 H6        1158.6642  -954.3839  -809.8404 H6            1 RES     
   35358 H6        1159.8789  -955.2219  -808.8077 H6            1 RES     
   35359 H6        1159.0899  -957.4370  -809.6476 H6            1 RES     
   35360 H6        1159.6907  -956.3491  -810.9496 H6            1 RES     
   35361 H6        1156.7166  -956.8787  -810.3101 H6            1 RES     
   35362 H6        1157.3511  -955.7473  -811.5748 H6            1 RES     
   35363 H6        1157.6622  -957.5201  -811.6935 H6            1 RES     
   35364 H6        1152.7857  -952.7674  -804.8353 H6            1 RES     
   35365 H6        1151.2580  -952.4152  -805.3658 H6            1 RES     
   35366 H6        1152.3250  -951.4749  -803.0943 H6            1 RES     
   35367 H6        1152.9468  -950.1325  -804.1029 H6            1 RES     
   35368 H6        1149.9927  -951.1203  -803.7185 H6            1 RES     
   35369 H6        1150.4655  -949.7415  -804.7350 H6            1 RES     
   35370 H6        1151.2999  -948.4406  -802.8991 H6            1 RES     
   35371 H6        1149.5498  -948.8792  -802.8864 H6            1 RES     
   35372 H6        1149.8303  -950.5749  -801.2275 H6            1 RES     
   35373 H6        1151.5898  -950.1859  -801.0504 H6            1 RES     
   35374 H6        1151.0422  -947.8201  -800.5031 H6            1 RES     
   35375 H6        1149.2867  -948.1029  -800.7576 H6            1 RES     
   35376 H6        1149.8971  -947.9789  -798.3822 H6            1 RES     
   35377 H6        1150.9702  -949.4199  -798.5443 H6            1 RES     
   35378 H6        1148.9313  -950.7984  -799.1806 H6            1 RES     
   35379 H6        1148.7027  -949.9738  -797.6009 H6            1 RES     
   35380 H6        1147.9118  -949.3077  -799.0765 H6            1 RES     
   35381 C0        1149.2186  -953.6377  -820.2164 C0            1 RES     
   35382 C1        1149.3102  -952.5263  -819.1476 C1            1 RES     
   35383 C1        1149.4976  -951.2970  -819.6945 C1            1 RES     
   35384 S2        1149.6934  -950.0819  -818.5597 S2            1 RES     
   35385 C1        1149.5755  -951.1794  -817.2665 C1            1 RES     
   35386 C1        1149.3880  -952.4805  -817.7457 C1            1 RES     
   35387 C1        1149.5838  -951.4313  -821.0971 C1            1 RES     
   35388 C1        1149.5171  -952.7499  -821.4254 C1            1 RES     
   35389 C1        1149.7391  -952.9690  -822.7797 C1            1 RES     
   35390 C1        1149.9379  -951.7512  -823.4517 C1            1 RES     
   35391 S2        1149.8594  -950.4258  -822.3931 S2            1 RES     
   35392 H3        1149.3664  -953.3255  -817.0840 H3            1 RES     
   35393 H3        1149.7607  -953.9455  -823.2485 H3            1 RES     
   35394 N4        1149.7979  -950.7993  -827.0745 N4            1 RES     
   35395 C1        1149.4259  -950.9793  -825.7732 C1            1 RES     
   35396 C1        1150.2980  -951.5910  -824.8561 C1            1 RES     
   35397 C1        1151.5582  -951.9860  -825.3087 C1            1 RES     
   35398 N4        1152.5139  -952.5343  -824.5154 N4            1 RES     
   35399 S2        1153.7751  -952.7249  -825.5666 S2            1 RES     
   35400 N4        1153.1841  -952.1496  -827.0012 N4            1 RES     
   35401 C1        1151.9278  -951.7702  -826.6601 C1            1 RES     
   35402 C1        1151.0202  -951.1837  -827.5382 C1            1 RES     
   35403 H5        1148.4411  -950.6525  -825.4509 H5            1 RES     
   35404 C0        1147.8505  -954.3665  -820.4611 C0            1 RES     
   35405 C0        1146.5247  -953.8464  -821.1348 C0            1 RES     
   35406 C0        1145.4900  -955.0123  -820.9543 C0            1 RES     
   35407 C0        1144.1067  -954.8144  -821.5866 C0            1 RES     
   35408 C0        1143.1564  -956.0012  -821.3018 C0            1 RES     
   35409 C0        1143.5961  -957.3672  -821.8733 C0            1 RES     
   35410 C0        1143.8694  -957.3783  -823.3877 C0            1 RES     
   35411 C0        1142.6590  -956.9235  -824.2223 C0            1 RES     
   35412 C0        1142.9520  -956.8818  -825.7289 C0            1 RES     
   35413 C0        1143.1942  -958.2734  -826.3375 C0            1 RES     
   35414 C0        1143.3725  -958.2310  -827.8635 C0            1 RES     
   35415 C0        1144.6341  -957.4866  -828.3022 C0            1 RES     
   35416 C0        1145.9317  -952.4640  -820.7078 C0            1 RES     
   35417 C0        1145.4154  -952.2739  -819.2484 C0            1 RES     
   35418 C0        1146.1990  -951.1347  -818.5895 C0            1 RES     
   35419 C0        1146.1017  -950.9805  -817.0744 C0            1 RES     
   35420 C0        1144.8551  -950.2883  -816.5430 C0            1 RES     
   35421 C0        1144.9862  -950.1974  -815.0081 C0            1 RES     
   35422 C0        1143.9013  -949.3558  -814.3323 C0            1 RES     
   35423 C0        1144.0236  -947.8691  -814.6728 C0            1 RES     
   35424 H6        1147.5333  -954.7285  -819.5166 H6            1 RES     
   35425 H6        1148.1196  -955.2501  -821.0828 H6            1 RES     
   35426 H6        1146.7432  -953.7340  -822.2203 H6            1 RES     
   35427 H6        1145.3307  -955.1962  -819.8693 H6            1 RES     
   35428 H6        1145.9375  -955.9321  -821.3881 H6            1 RES     
   35429 H6        1144.2071  -954.6465  -822.6782 H6            1 RES     
   35430 H6        1143.6255  -953.9213  -821.1394 H6            1 RES     
   35431 H6        1142.1561  -955.7476  -821.7095 H6            1 RES     
   35432 H6        1143.0288  -956.1135  -820.2023 H6            1 RES     
   35433 H6        1142.7990  -958.1093  -821.6442 H6            1 RES     
   35434 H6        1144.5151  -957.7124  -821.3532 H6            1 RES     
   35435 H6        1144.7372  -956.7214  -823.6078 H6            1 RES     
   35436 H6        1144.1513  -958.4154  -823.6642 H6            1 RES     
   35437 H6        1142.3920  -955.8872  -823.9308 H6            1 RES     
   35438 H6        1141.7836  -957.5795  -824.0220 H6            1 RES     
   35439 H6        1142.0662  -956.4345  -826.2304 H6            1 RES     
   35440 H6        1143.8230  -956.2152  -825.9013 H6            1 RES     
   35441 H6        1144.0867  -958.7547  -825.8865 H6            1 RES     
   35442 H6        1142.3062  -958.9055  -826.1182 H6            1 RES     
   35443 H6        1142.4804  -957.7634  -828.3345 H6            1 RES     
   35444 H6        1143.4486  -959.2770  -828.2314 H6            1 RES     
   35445 H6        1144.5955  -956.4179  -828.0097 H6            1 RES     
   35446 H6        1145.5333  -957.9595  -827.8533 H6            1 RES     
   35447 H6        1144.7226  -957.5337  -829.4078 H6            1 RES     
   35448 H6        1145.0755  -952.2438  -821.3807 H6            1 RES     
   35449 H6        1146.6620  -951.6731  -820.9829 H6            1 RES     
   35450 H6        1144.3361  -952.0013  -819.2436 H6            1 RES     
   35451 H6        1145.5363  -953.2158  -818.6756 H6            1 RES     
   35452 H6        1146.0488  -950.1645  -819.1082 H6            1 RES     
   35453 H6        1147.2184  -951.4220  -818.7363 H6            1 RES     
   35454 H6        1146.2381  -951.9584  -816.6061 H6            1 RES     
   35455 H6        1146.9653  -950.3473  -816.7680 H6            1 RES     
   35456 H6        1144.8228  -949.2758  -816.9981 H6            1 RES     
   35457 H6        1143.9335  -950.8432  -816.8188 H6            1 RES     
   35458 H6        1144.9458  -951.2320  -814.5981 H6            1 RES     
   35459 H6        1145.9727  -949.7635  -814.7266 H6            1 RES     
   35460 H6        1144.0328  -949.4556  -813.2323 H6            1 RES     
   35461 H6        1142.8940  -949.7373  -814.6019 H6            1 RES     
   35462 H6        1143.8637  -947.6850  -815.7535 H6            1 RES     
   35463 H6        1143.2618  -947.2956  -814.1068 H6            1 RES     
   35464 H6        1145.0308  -947.4926  -814.3855 H6            1 RES     
   35465 C0        1150.3778  -954.6495  -819.8584 C0            1 RES     
   35466 C0        1150.1793  -956.1417  -819.3293 C0            1 RES     
   35467 C0        1151.5132  -956.5371  -818.6103 C0            1 RES     
   35468 C0        1151.6583  -958.0291  -818.2486 C0            1 RES     
   35469 C0        1152.9725  -958.3679  -817.5231 C0            1 RES     
   35470 C0        1154.2644  -958.0572  -818.2999 C0            1 RES     
   35471 C0        1154.3466  -958.6755  -819.7054 C0            1 RES     
   35472 C0        1154.2030  -960.2076  -819.7097 C0            1 RES     
   35473 C0        1154.2822  -960.8093  -821.1222 C0            1 RES     
   35474 C0        1155.6724  -960.6507  -821.7635 C0            1 RES     
   35475 C0        1155.7912  -961.3595  -823.1217 C0            1 RES     
   35476 C0        1154.8936  -960.7522  -824.1999 C0            1 RES     
   35477 C0        1148.9172  -956.6690  -818.5255 C0            1 RES     
   35478 C0        1148.6039  -956.1915  -817.0792 C0            1 RES     
   35479 C0        1147.4076  -955.2243  -817.0276 C0            1 RES     
   35480 C0        1147.0567  -954.6471  -815.6661 C0            1 RES     
   35481 C0        1146.4007  -955.5879  -814.6654 C0            1 RES     
   35482 C0        1145.9884  -954.7359  -813.4476 C0            1 RES     
   35483 C0        1145.1708  -955.4870  -812.3951 C0            1 RES     
   35484 C0        1143.7843  -955.8792  -812.9080 C0            1 RES     
   35485 H6        1151.0941  -954.1249  -819.1840 H6            1 RES     
   35486 H6        1151.0070  -954.7655  -820.7698 H6            1 RES     
   35487 H6        1150.1164  -956.7453  -820.2640 H6            1 RES     
   35488 H6        1151.6163  -955.9364  -817.6808 H6            1 RES     
   35489 H6        1152.3544  -956.2693  -819.2852 H6            1 RES     
   35490 H6        1151.5591  -958.6414  -819.1693 H6            1 RES     
   35491 H6        1150.8648  -958.3318  -817.5382 H6            1 RES     
   35492 H6        1152.9526  -959.4509  -817.2762 H6            1 RES     
   35493 H6        1153.0085  -957.8190  -816.5564 H6            1 RES     
   35494 H6        1155.1223  -958.4183  -817.6915 H6            1 RES     
   35495 H6        1154.3757  -956.9565  -818.4006 H6            1 RES     
   35496 H6        1153.5597  -958.2326  -820.3528 H6            1 RES     
   35497 H6        1155.3320  -958.3852  -820.1235 H6            1 RES     
   35498 H6        1153.2054  -960.4758  -819.3035 H6            1 RES     
   35499 H6        1154.9783  -960.6691  -819.0607 H6            1 RES     
   35500 H6        1154.0616  -961.8957  -821.0377 H6            1 RES     
   35501 H6        1153.4973  -960.3432  -821.7548 H6            1 RES     
   35502 H6        1155.9283  -959.5797  -821.8995 H6            1 RES     
   35503 H6        1156.4219  -961.1057  -821.0797 H6            1 RES     
   35504 H6        1155.5562  -962.4398  -823.0048 H6            1 RES     
   35505 H6        1156.8445  -961.2699  -823.4647 H6            1 RES     
   35506 H6        1153.8213  -960.8589  -823.9395 H6            1 RES     
   35507 H6        1155.1346  -959.6767  -824.3391 H6            1 RES     
   35508 H6        1155.0661  -961.2811  -825.1608 H6            1 RES     
   35509 H6        1149.0747  -957.7602  -818.4443 H6            1 RES     
   35510 H6        1147.9971  -956.7128  -819.1379 H6            1 RES     
   35511 H6        1148.2666  -957.0769  -816.4965 H6            1 RES     
   35512 H6        1149.5149  -955.7963  -816.5857 H6            1 RES     
   35513 H6        1146.5081  -955.7003  -817.4799 H6            1 RES     
   35514 H6        1147.6345  -954.3309  -817.5985 H6            1 RES     
   35515 H6        1147.9472  -954.1476  -815.2263 H6            1 RES     
   35516 H6        1146.2827  -953.8898  -815.8730 H6            1 RES     
   35517 H6        1145.5065  -956.0309  -815.1527 H6            1 RES     
   35518 H6        1147.0940  -956.4007  -814.3641 H6            1 RES     
   35519 H6        1146.9145  -954.3456  -812.9709 H6            1 RES     
   35520 H6        1145.3845  -953.8589  -813.7763 H6            1 RES     
   35521 H6        1145.0249  -954.7966  -811.5354 H6            1 RES     
   35522 H6        1145.7272  -956.3785  -812.0441 H6            1 RES     
   35523 H6        1143.8513  -956.6023  -813.7449 H6            1 RES     
   35524 H6        1143.2100  -956.3525  -812.0854 H6            1 RES     
   35525 H6        1143.2305  -954.9771  -813.2493 H6            1 RES     
   35526 C0        1151.7326  -951.8870  -832.8838 C0            1 RES     
   35527 C1        1151.6413  -951.3300  -831.4461 C1            1 RES     
   35528 C1        1152.2956  -950.1478  -831.3069 C1            1 RES     
   35529 S2        1152.2943  -949.5622  -829.7386 S2            1 RES     
   35530 C1        1151.4384  -950.9142  -829.1637 C1            1 RES     
   35531 C1        1151.1708  -951.8038  -830.2100 C1            1 RES     
   35532 C1        1152.8931  -949.8104  -832.5405 C1            1 RES     
   35533 C1        1152.6702  -950.8114  -833.4344 C1            1 RES     
   35534 C1        1153.3512  -950.6138  -834.6296 C1            1 RES     
   35535 C1        1154.0623  -949.4023  -834.5993 C1            1 RES     
   35536 S2        1153.8704  -948.5947  -833.1179 S2            1 RES     
   35537 H3        1150.7046  -952.7546  -830.0340 H3            1 RES     
   35538 H3        1153.3381  -951.3032  -835.4653 H3            1 RES     
   35539 N4        1155.5696  -947.2761  -837.2932 N4            1 RES     
   35540 C1        1154.6871  -947.7452  -836.3631 C1            1 RES     
   35541 C1        1154.9702  -948.9103  -835.6294 C1            1 RES     
   35542 C1        1156.1853  -949.5566  -835.8633 C1            1 RES     
   35543 N4        1156.6057  -950.6548  -835.1844 N4            1 RES     
   35544 S2        1158.1019  -950.9180  -835.8357 S2            1 RES     
   35545 N4        1158.2647  -949.7085  -836.9532 N4            1 RES     
   35546 C1        1157.0933  -949.0384  -836.8204 C1            1 RES     
   35547 C1        1156.7576  -947.8957  -837.5417 C1            1 RES     
   35548 H5        1153.7538  -947.2136  -836.1988 H5            1 RES     
   35549 C0        1150.4459  -951.9307  -833.7811 C0            1 RES     
   35550 C0        1149.6419  -950.7629  -834.4678 C0            1 RES     
   35551 C0        1148.3890  -951.4533  -835.1129 C0            1 RES     
   35552 C0        1147.4461  -950.5570  -835.9252 C0            1 RES     
   35553 C0        1146.2230  -951.3326  -836.4687 C0            1 RES     
   35554 C0        1146.5371  -952.4760  -837.4585 C0            1 RES     
   35555 C0        1147.3729  -952.0621  -838.6826 C0            1 RES     
   35556 C0        1146.7206  -950.9372  -839.5057 C0            1 RES     
   35557 C0        1147.5825  -950.4876  -840.6942 C0            1 RES     
   35558 C0        1147.7293  -951.5681  -841.7789 C0            1 RES     
   35559 C0        1148.4966  -951.0692  -843.0137 C0            1 RES     
   35560 C0        1149.9599  -950.7367  -842.7198 C0            1 RES     
   35561 C0        1149.2512  -949.4991  -833.6340 C0            1 RES     
   35562 C0        1148.2597  -949.6503  -832.4395 C0            1 RES     
   35563 C0        1148.9532  -949.1811  -831.1569 C0            1 RES     
   35564 C0        1148.3060  -949.5361  -829.8213 C0            1 RES     
   35565 C0        1147.1380  -948.6652  -829.3823 C0            1 RES     
   35566 C0        1146.6729  -949.1654  -827.9985 C0            1 RES     
   35567 C0        1145.6256  -948.2746  -827.3264 C0            1 RES     
   35568 C0        1146.1979  -946.9174  -826.9119 C0            1 RES     
   35569 H6        1149.7119  -952.4539  -833.2231 H6            1 RES     
   35570 H6        1150.7343  -952.5777  -834.6401 H6            1 RES     
   35571 H6        1150.2877  -950.3705  -835.2848 H6            1 RES     
   35572 H6        1147.7804  -951.9290  -834.3131 H6            1 RES     
   35573 H6        1148.7550  -952.2619  -835.7814 H6            1 RES     
   35574 H6        1148.0012  -950.0713  -836.7533 H6            1 RES     
   35575 H6        1147.0389  -949.7638  -835.2662 H6            1 RES     
   35576 H6        1145.5462  -950.6060  -836.9639 H6            1 RES     
   35577 H6        1145.6528  -951.7630  -835.6158 H6            1 RES     
   35578 H6        1145.5713  -952.9043  -837.8081 H6            1 RES     
   35579 H6        1147.0770  -953.2908  -836.9303 H6            1 RES     
   35580 H6        1148.3795  -951.7365  -838.3454 H6            1 RES     
   35581 H6        1147.5033  -952.9657  -839.3135 H6            1 RES     
   35582 H6        1146.5974  -950.0451  -838.8585 H6            1 RES     
   35583 H6        1145.7152  -951.2525  -839.8614 H6            1 RES     
   35584 H6        1147.0877  -949.6033  -841.1516 H6            1 RES     
   35585 H6        1148.5754  -950.1713  -840.3110 H6            1 RES     
   35586 H6        1148.2424  -952.4668  -841.3782 H6            1 RES     
   35587 H6        1146.7105  -951.8646  -842.1109 H6            1 RES     
   35588 H6        1147.9886  -950.1755  -843.4376 H6            1 RES     
   35589 H6        1148.4772  -951.8734  -843.7805 H6            1 RES     
   35590 H6        1150.0475  -949.9005  -841.9972 H6            1 RES     
   35591 H6        1150.4818  -951.6298  -842.3152 H6            1 RES     
   35592 H6        1150.4623  -950.4275  -843.6602 H6            1 RES     
   35593 H6        1148.7997  -948.7625  -834.3326 H6            1 RES     
   35594 H6        1150.1863  -948.9883  -833.3191 H6            1 RES     
   35595 H6        1147.3548  -949.0211  -832.5953 H6            1 RES     
   35596 H6        1147.9343  -950.7063  -832.3457 H6            1 RES     
   35597 H6        1149.2375  -948.1086  -831.1996 H6            1 RES     
   35598 H6        1149.8572  -949.7520  -831.1446 H6            1 RES     
   35599 H6        1148.0273  -950.5927  -829.8288 H6            1 RES     
   35600 H6        1149.0970  -949.4115  -829.0472 H6            1 RES     
   35601 H6        1147.5120  -947.6213  -829.3206 H6            1 RES     
   35602 H6        1146.3005  -948.7116  -830.1102 H6            1 RES     
   35603 H6        1146.2467  -950.1861  -828.1277 H6            1 RES     
   35604 H6        1147.5392  -949.2493  -827.3035 H6            1 RES     
   35605 H6        1145.2893  -948.7893  -826.3995 H6            1 RES     
   35606 H6        1144.7477  -948.1419  -827.9930 H6            1 RES     
   35607 H6        1146.5199  -946.3261  -827.7917 H6            1 RES     
   35608 H6        1145.4227  -946.3385  -826.3699 H6            1 RES     
   35609 H6        1147.0677  -947.0604  -826.2324 H6            1 RES     
   35610 C0        1152.4029  -953.3095  -832.7324 C0            1 RES     
   35611 C0        1151.6874  -954.7088  -833.0085 C0            1 RES     
   35612 C0        1152.5085  -955.7876  -832.2246 C0            1 RES     
   35613 C0        1152.1656  -957.2547  -832.5533 C0            1 RES     
   35614 C0        1152.9790  -958.2797  -831.7434 C0            1 RES     
   35615 C0        1154.5060  -958.2160  -831.9260 C0            1 RES     
   35616 C0        1154.9939  -958.2943  -833.3822 C0            1 RES     
   35617 C0        1154.5279  -959.5637  -834.1167 C0            1 RES     
   35618 C0        1155.0196  -959.6242  -835.5720 C0            1 RES     
   35619 C0        1156.5474  -959.7747  -835.6822 C0            1 RES     
   35620 C0        1157.0294  -959.9609  -837.1293 C0            1 RES     
   35621 C0        1156.7856  -958.7346  -838.0090 C0            1 RES     
   35622 C0        1150.1285  -954.9799  -832.8931 C0            1 RES     
   35623 C0        1149.3872  -954.9527  -831.5265 C0            1 RES     
   35624 C0        1148.5132  -953.6967  -831.3588 C0            1 RES     
   35625 C0        1147.7936  -953.5403  -830.0293 C0            1 RES     
   35626 C0        1146.6069  -954.4587  -829.7740 C0            1 RES     
   35627 C0        1145.9497  -953.9927  -828.4588 C0            1 RES     
   35628 C0        1144.6405  -954.7058  -828.1160 C0            1 RES     
   35629 C0        1143.5171  -954.3594  -829.0943 C0            1 RES     
   35630 H6        1152.8939  -953.3520  -831.7323 H6            1 RES     
   35631 H6        1153.2965  -953.3251  -833.3966 H6            1 RES     
   35632 H6        1151.8643  -954.8840  -834.0948 H6            1 RES     
   35633 H6        1152.3690  -955.6279  -831.1336 H6            1 RES     
   35634 H6        1153.5836  -955.6311  -832.4581 H6            1 RES     
   35635 H6        1152.3026  -957.4290  -833.6411 H6            1 RES     
   35636 H6        1151.1114  -957.4712  -832.2930 H6            1 RES     
   35637 H6        1152.6244  -959.2933  -832.0282 H6            1 RES     
   35638 H6        1152.7535  -958.1530  -830.6616 H6            1 RES     
   35639 H6        1154.9532  -959.0526  -831.3458 H6            1 RES     
   35640 H6        1154.8887  -957.2711  -831.4846 H6            1 RES     
   35641 H6        1154.6435  -957.3996  -833.9400 H6            1 RES     
   35642 H6        1156.1019  -958.2600  -833.3487 H6            1 RES     
   35643 H6        1153.4185  -959.5704  -834.1535 H6            1 RES     
   35644 H6        1154.8632  -960.4709  -833.5689 H6            1 RES     
   35645 H6        1154.5488  -960.5111  -836.0494 H6            1 RES     
   35646 H6        1154.6703  -958.7152  -836.1063 H6            1 RES     
   35647 H6        1157.0665  -958.8963  -835.2464 H6            1 RES     
   35648 H6        1156.8474  -960.6787  -835.1086 H6            1 RES     
   35649 H6        1156.5344  -960.8484  -837.5800 H6            1 RES     
   35650 H6        1158.1241  -960.1508  -837.1048 H6            1 RES     
   35651 H6        1155.7025  -958.5241  -838.1167 H6            1 RES     
   35652 H6        1157.2936  -957.8458  -837.5779 H6            1 RES     
   35653 H6        1157.1994  -958.9225  -839.0221 H6            1 RES     
   35654 H6        1149.9955  -956.0082  -833.2763 H6            1 RES     
   35655 H6        1149.5377  -954.4688  -833.6763 H6            1 RES     
   35656 H6        1148.6612  -955.7954  -831.5189 H6            1 RES     
   35657 H6        1150.0943  -955.1157  -830.6881 H6            1 RES     
   35658 H6        1147.7822  -953.6219  -832.1957 H6            1 RES     
   35659 H6        1149.1377  -952.8107  -831.3817 H6            1 RES     
   35660 H6        1148.5266  -953.5871  -829.1948 H6            1 RES     
   35661 H6        1147.3516  -952.5310  -830.0661 H6            1 RES     
   35662 H6        1145.9017  -954.3453  -830.6244 H6            1 RES     
   35663 H6        1146.9275  -955.5190  -829.7031 H6            1 RES     
   35664 H6        1146.6759  -954.1597  -827.6330 H6            1 RES     
   35665 H6        1145.7339  -952.9001  -828.5006 H6            1 RES     
   35666 H6        1144.3259  -954.3533  -827.1092 H6            1 RES     
   35667 H6        1144.8019  -955.8012  -828.0742 H6            1 RES     
   35668 H6        1143.7450  -954.7193  -830.1173 H6            1 RES     
   35669 H6        1142.5767  -954.8423  -828.7580 H6            1 RES     
   35670 H6        1143.3565  -953.2592  -829.1224 H6            1 RES     
   35671 C0        1159.3353  -946.9159  -842.2293 C0            1 RES     
   35672 C1        1158.8130  -946.8984  -840.7758 C1            1 RES     
   35673 C1        1159.6044  -946.1649  -839.9506 C1            1 RES     
   35674 S2        1159.1176  -946.2008  -838.3493 S2            1 RES     
   35675 C1        1157.8285  -947.2540  -838.6955 C1            1 RES     
   35676 C1        1157.8030  -947.5627  -840.0600 C1            1 RES     
   35677 C1        1160.6966  -945.6658  -840.6927 C1            1 RES     
   35678 C1        1160.6266  -946.1399  -841.9660 C1            1 RES     
   35679 C1        1161.7473  -945.8054  -842.7166 C1            1 RES     
   35680 C1        1162.6386  -945.0298  -841.9561 C1            1 RES     
   35681 S2        1162.0650  -944.7741  -840.3785 S2            1 RES     
   35682 H3        1157.1071  -948.2741  -840.4624 H3            1 RES     
   35683 H3        1161.9108  -946.1071  -843.7443 H3            1 RES     
   35684 N4        1165.5124  -942.8139  -842.8950 N4            1 RES     
   35685 C1        1164.2556  -943.2175  -842.5459 C1            1 RES     
   35686 C1        1163.9623  -944.5813  -842.3733 C1            1 RES     
   35687 C1        1164.9956  -945.5039  -842.5463 C1            1 RES     
   35688 N4        1164.8613  -946.8413  -842.3542 N4            1 RES     
   35689 S2        1166.3942  -947.3916  -842.6359 S2            1 RES     
   35690 N4        1167.2460  -946.0200  -842.9985 N4            1 RES     
   35691 C1        1166.2966  -945.0580  -842.8895 C1            1 RES     
   35692 C1        1166.5331  -943.6984  -843.0753 C1            1 RES     
   35693 H5        1163.4758  -942.4731  -842.4102 H5            1 RES     
   35694 C0        1158.5289  -946.1720  -843.3514 C0            1 RES     
   35695 C0        1158.3394  -944.6312  -843.6194 C0            1 RES     
   35696 C0        1157.3211  -944.5456  -844.8102 C0            1 RES     
   35697 C0        1156.9966  -943.1450  -845.3444 C0            1 RES     
   35698 C0        1155.9462  -943.1790  -846.4795 C0            1 RES     
   35699 C0        1156.3616  -943.9396  -847.7580 C0            1 RES     
   35700 C0        1157.6797  -943.4650  -848.3948 C0            1 RES     
   35701 C0        1157.6696  -941.9696  -848.7586 C0            1 RES     
   35702 C0        1159.0050  -941.4861  -849.3421 C0            1 RES     
   35703 C0        1159.3223  -942.0982  -850.7169 C0            1 RES     
   35704 C0        1160.6023  -941.5214  -851.3424 C0            1 RES     
   35705 C0        1161.8670  -941.8719  -850.5576 C0            1 RES     
   35706 C0        1157.9435  -943.6846  -842.4394 C0            1 RES     
   35707 C0        1156.5561  -943.8650  -841.7498 C0            1 RES     
   35708 C0        1156.7759  -944.1573  -840.2624 C0            1 RES     
   35709 C0        1155.5954  -944.6886  -839.4544 C0            1 RES     
   35710 C0        1154.5734  -943.6601  -838.9926 C0            1 RES     
   35711 C0        1153.5045  -944.4003  -838.1614 C0            1 RES     
   35712 C0        1152.5031  -943.4795  -837.4603 C0            1 RES     
   35713 C0        1153.1521  -942.6600  -836.3429 C0            1 RES     
   35714 H6        1157.5388  -946.5480  -843.3050 H6            1 RES     
   35715 H6        1158.9801  -946.5396  -844.3007 H6            1 RES     
   35716 H6        1159.3235  -944.2464  -843.9688 H6            1 RES     
   35717 H6        1156.3585  -945.0101  -844.5034 H6            1 RES     
   35718 H6        1157.7309  -945.1470  -845.6498 H6            1 RES     
   35719 H6        1157.9247  -942.6425  -845.6849 H6            1 RES     
   35720 H6        1156.5503  -942.5384  -844.5308 H6            1 RES     
   35721 H6        1155.6972  -942.1321  -846.7504 H6            1 RES     
   35722 H6        1155.0071  -943.6368  -846.0968 H6            1 RES     
   35723 H6        1155.5417  -943.8349  -848.5031 H6            1 RES     
   35724 H6        1156.4558  -945.0238  -847.5348 H6            1 RES     
   35725 H6        1158.5182  -943.6691  -847.6960 H6            1 RES     
   35726 H6        1157.8435  -944.0752  -849.3072 H6            1 RES     
   35727 H6        1157.5034  -941.3776  -847.8356 H6            1 RES     
   35728 H6        1156.8418  -941.7507  -849.4682 H6            1 RES     
   35729 H6        1158.9387  -940.3827  -849.4617 H6            1 RES     
   35730 H6        1159.8112  -941.7091  -848.6119 H6            1 RES     
   35731 H6        1159.4240  -943.2011  -850.6473 H6            1 RES     
   35732 H6        1158.4773  -941.8663  -851.4014 H6            1 RES     
   35733 H6        1160.5132  -940.4168  -851.4327 H6            1 RES     
   35734 H6        1160.7076  -941.9439  -852.3649 H6            1 RES     
   35735 H6        1161.8469  -941.4314  -849.5403 H6            1 RES     
   35736 H6        1161.9762  -942.9745  -850.4799 H6            1 RES     
   35737 H6        1162.7530  -941.4637  -851.0875 H6            1 RES     
   35738 H6        1157.9777  -942.6414  -842.8200 H6            1 RES     
   35739 H6        1158.7678  -943.6948  -841.6945 H6            1 RES     
   35740 H6        1155.9488  -942.9361  -841.8353 H6            1 RES     
   35741 H6        1155.9949  -944.6904  -842.2329 H6            1 RES     
   35742 H6        1157.2841  -943.3202  -839.7389 H6            1 RES     
   35743 H6        1157.4517  -944.9858  -840.2730 H6            1 RES     
   35744 H6        1155.1155  -945.4967  -840.0119 H6            1 RES     
   35745 H6        1156.0255  -945.1384  -838.5306 H6            1 RES     
   35746 H6        1155.1144  -942.9167  -838.3696 H6            1 RES     
   35747 H6        1154.1011  -943.1417  -839.8537 H6            1 RES     
   35748 H6        1152.9485  -945.0812  -838.8452 H6            1 RES     
   35749 H6        1153.9865  -945.0305  -837.3797 H6            1 RES     
   35750 H6        1151.7252  -944.1214  -836.9913 H6            1 RES     
   35751 H6        1152.0103  -942.8127  -838.1988 H6            1 RES     
   35752 H6        1153.9157  -941.9630  -836.7408 H6            1 RES     
   35753 H6        1152.3757  -942.0634  -835.8224 H6            1 RES     
   35754 H6        1153.6302  -943.3372  -835.6002 H6            1 RES     
   35755 C0        1159.5590  -948.4427  -842.5679 C0            1 RES     
   35756 C0        1158.7187  -949.2939  -843.6241 C0            1 RES     
   35757 C0        1158.9050  -950.7976  -843.2286 C0            1 RES     
   35758 C0        1158.4029  -951.8257  -844.2624 C0            1 RES     
   35759 C0        1158.5841  -953.2892  -843.8224 C0            1 RES     
   35760 C0        1160.0330  -953.7304  -843.5487 C0            1 RES     
   35761 C0        1161.0226  -953.4733  -844.6972 C0            1 RES     
   35762 C0        1160.6136  -954.1452  -846.0198 C0            1 RES     
   35763 C0        1161.6102  -953.8744  -847.1586 C0            1 RES     
   35764 C0        1162.9840  -954.5260  -846.9198 C0            1 RES     
   35765 C0        1163.9408  -954.3631  -848.1111 C0            1 RES     
   35766 C0        1164.3401  -952.9103  -848.3701 C0            1 RES     
   35767 C0        1157.2217  -948.9968  -844.0573 C0            1 RES     
   35768 C0        1156.0296  -949.1742  -843.0747 C0            1 RES     
   35769 C0        1155.4618  -947.8270  -842.5928 C0            1 RES     
   35770 C0        1154.3325  -947.8880  -841.5776 C0            1 RES     
   35771 C0        1152.9694  -948.3348  -842.0869 C0            1 RES     
   35772 C0        1151.9699  -948.1463  -840.9274 C0            1 RES     
   35773 C0        1150.5086  -948.4011  -841.3014 C0            1 RES     
   35774 C0        1149.9664  -947.3520  -842.2732 C0            1 RES     
   35775 H6        1159.5956  -949.0050  -841.6059 H6            1 RES     
   35776 H6        1160.6139  -948.5538  -842.9067 H6            1 RES     
   35777 H6        1159.2640  -949.1344  -844.5828 H6            1 RES     
   35778 H6        1158.3878  -950.9858  -842.2630 H6            1 RES     
   35779 H6        1159.9911  -950.9756  -843.0747 H6            1 RES     
   35780 H6        1158.9134  -951.6503  -845.2325 H6            1 RES     
   35781 H6        1157.3117  -951.7165  -844.4150 H6            1 RES     
   35782 H6        1158.1548  -953.9364  -844.6167 H6            1 RES     
   35783 H6        1157.9864  -953.4711  -842.9022 H6            1 RES     
   35784 H6        1160.0192  -954.8176  -843.3152 H6            1 RES     
   35785 H6        1160.4109  -953.2070  -842.6446 H6            1 RES     
   35786 H6        1161.1270  -952.3792  -844.8598 H6            1 RES     
   35787 H6        1162.0063  -953.8612  -844.3624 H6            1 RES     
   35788 H6        1159.6362  -953.7318  -846.3453 H6            1 RES     
   35789 H6        1160.4970  -955.2411  -845.8754 H6            1 RES     
   35790 H6        1161.1807  -954.3030  -848.0903 H6            1 RES     
   35791 H6        1161.7094  -952.7764  -847.2944 H6            1 RES     
   35792 H6        1163.4710  -954.1081  -846.0148 H6            1 RES     
   35793 H6        1162.8264  -955.6152  -846.7612 H6            1 RES     
   35794 H6        1163.4791  -954.7926  -849.0266 H6            1 RES     
   35795 H6        1164.8664  -954.9367  -847.8889 H6            1 RES     
   35796 H6        1163.4621  -952.2944  -848.6507 H6            1 RES     
   35797 H6        1164.8214  -952.4777  -847.4672 H6            1 RES     
   35798 H6        1165.0654  -952.8740  -849.2100 H6            1 RES     
   35799 H6        1157.0254  -949.7039  -844.8840 H6            1 RES     
   35800 H6        1157.1147  -948.0681  -844.6487 H6            1 RES     
   35801 H6        1155.1919  -949.6389  -843.6399 H6            1 RES     
   35802 H6        1156.2958  -949.8639  -842.2483 H6            1 RES     
   35803 H6        1155.1542  -947.2053  -843.4641 H6            1 RES     
   35804 H6        1156.2247  -947.2825  -842.0477 H6            1 RES     
   35805 H6        1154.6490  -948.4855  -840.6952 H6            1 RES     
   35806 H6        1154.1759  -946.8414  -841.2683 H6            1 RES     
   35807 H6        1152.6987  -947.6845  -842.9454 H6            1 RES     
   35808 H6        1152.9929  -949.3927  -842.4220 H6            1 RES     
   35809 H6        1152.2572  -948.8421  -840.1086 H6            1 RES     
   35810 H6        1152.0358  -947.1090  -840.5254 H6            1 RES     
   35811 H6        1149.9109  -948.3295  -840.3663 H6            1 RES     
   35812 H6        1150.3937  -949.4211  -841.7189 H6            1 RES     
   35813 H6        1150.4915  -947.3928  -843.2481 H6            1 RES     
   35814 H6        1148.8880  -947.5410  -842.4517 H6            1 RES     
   35815 H6        1150.0778  -946.3332  -841.8416 H6            1 RES     
   35816 C0        1170.8906  -942.1757  -845.9513 C0            1 RES     
   35817 C1        1169.8579  -942.4717  -844.8415 C1            1 RES     
   35818 C1        1170.4031  -942.4134  -843.5987 C1            1 RES     
   35819 S2        1169.3323  -942.8197  -842.3778 S2            1 RES     
   35820 C1        1168.0840  -943.1375  -843.4876 C1            1 RES     
   35821 C1        1168.5283  -942.9231  -844.7969 C1            1 RES     
   35822 C1        1171.7800  -942.1258  -843.7189 C1            1 RES     
   35823 C1        1172.1121  -942.0694  -845.0370 C1            1 RES     
   35824 C1        1173.4812  -941.9315  -845.2315 C1            1 RES     
   35825 C1        1174.1503  -941.8510  -843.9986 C1            1 RES     
   35826 S2        1173.0759  -941.9654  -842.6886 S2            1 RES     
   35827 H3        1167.9073  -943.1435  -845.6443 H3            1 RES     
   35828 H3        1173.9635  -941.8968  -846.2010 H3            1 RES     
   35829 N4        1177.5751  -940.6650  -843.0423 N4            1 RES     
   35830 C1        1176.2268  -940.6739  -843.2571 C1            1 RES     
   35831 C1        1175.5951  -941.8043  -843.8039 C1            1 RES     
   35832 C1        1176.3810  -942.9200  -844.0977 C1            1 RES     
   35833 N4        1175.8894  -944.0925  -844.5743 N4            1 RES     
   35834 S2        1177.2464  -945.0321  -844.6612 S2            1 RES     
   35835 N4        1178.4530  -944.0339  -844.1263 N4            1 RES     
   35836 C1        1177.7759  -942.8927  -843.8472 C1            1 RES     
   35837 C1        1178.3611  -941.7407  -843.3284 C1            1 RES     
   35838 H5        1175.6423  -939.7921  -843.0092 H5            1 RES     
   35839 C0        1170.7759  -940.8497  -846.7827 C0            1 RES     
   35840 C0        1171.0532  -939.3565  -846.3637 C0            1 RES     
   35841 C0        1170.6304  -938.4978  -847.6072 C0            1 RES     
   35842 C0        1170.8606  -936.9843  -847.5140 C0            1 RES     
   35843 C0        1170.3607  -936.2364  -848.7724 C0            1 RES     
   35844 C0        1171.0648  -936.6036  -850.0973 C0            1 RES     
   35845 C0        1172.5965  -936.4563  -850.0795 C0            1 RES     
   35846 C0        1173.0615  -935.0350  -849.7158 C0            1 RES     
   35847 C0        1174.5897  -934.9049  -849.6439 C0            1 RES     
   35848 C0        1175.2768  -935.0745  -851.0095 C0            1 RES     
   35849 C0        1176.7927  -934.8289  -850.9458 C0            1 RES     
   35850 C0        1177.5361  -935.8663  -850.1037 C0            1 RES     
   35851 C0        1170.4465  -938.8018  -845.0336 C0            1 RES     
   35852 C0        1168.8974  -938.6878  -844.8914 C0            1 RES     
   35853 C0        1168.4452  -939.5350  -843.6982 C0            1 RES     
   35854 C0        1166.9566  -939.8409  -843.5596 C0            1 RES     
   35855 C0        1166.0909  -938.7377  -842.9688 C0            1 RES     
   35856 C0        1164.6466  -939.2729  -842.8757 C0            1 RES     
   35857 C0        1163.6815  -938.3530  -842.1242 C0            1 RES     
   35858 C0        1164.0040  -938.2692  -840.6308 C0            1 RES     
   35859 H6        1169.7905  -940.8278  -847.1730 H6            1 RES     
   35860 H6        1171.4697  -941.0043  -847.6397 H6            1 RES     
   35861 H6        1172.1541  -939.2638  -846.2293 H6            1 RES     
   35862 H6        1169.5477  -938.6525  -847.8083 H6            1 RES     
   35863 H6        1171.1924  -938.8771  -848.4873 H6            1 RES     
   35864 H6        1171.9341  -936.7724  -847.3334 H6            1 RES     
   35865 H6        1170.2773  -936.5781  -846.6631 H6            1 RES     
   35866 H6        1170.4767  -935.1472  -848.5950 H6            1 RES     
   35867 H6        1169.2708  -936.4201  -848.8997 H6            1 RES     
   35868 H6        1170.6483  -935.9551  -850.9001 H6            1 RES     
   35869 H6        1170.8210  -937.6519  -850.3728 H6            1 RES     
   35870 H6        1173.0256  -937.1814  -849.3562 H6            1 RES     
   35871 H6        1172.9655  -936.7279  -851.0903 H6            1 RES     
   35872 H6        1172.6821  -934.7819  -848.7048 H6            1 RES     
   35873 H6        1172.6494  -934.2973  -850.4387 H6            1 RES     
   35874 H6        1174.8219  -933.8860  -849.2642 H6            1 RES     
   35875 H6        1174.9735  -935.6453  -848.9110 H6            1 RES     
   35876 H6        1175.0959  -936.0885  -851.4224 H6            1 RES     
   35877 H6        1174.8424  -934.3279  -851.7097 H6            1 RES     
   35878 H6        1176.9933  -933.8108  -850.5464 H6            1 RES     
   35879 H6        1177.1943  -934.8789  -851.9809 H6            1 RES     
   35880 H6        1177.2166  -935.8302  -849.0427 H6            1 RES     
   35881 H6        1177.3588  -936.8857  -850.5076 H6            1 RES     
   35882 H6        1178.6254  -935.6551  -850.1382 H6            1 RES     
   35883 H6        1170.8575  -937.7815  -844.8771 H6            1 RES     
   35884 H6        1170.8879  -939.3701  -844.1871 H6            1 RES     
   35885 H6        1168.5946  -937.6333  -844.7033 H6            1 RES     
   35886 H6        1168.4031  -939.0281  -845.8239 H6            1 RES     
   35887 H6        1168.8790  -939.1791  -842.7400 H6            1 RES     
   35888 H6        1168.8691  -940.4947  -843.9048 H6            1 RES     
   35889 H6        1166.5680  -940.1704  -844.5263 H6            1 RES     
   35890 H6        1166.8784  -940.7064  -842.8629 H6            1 RES     
   35891 H6        1166.4942  -938.5091  -841.9595 H6            1 RES     
   35892 H6        1166.1220  -937.8192  -843.5921 H6            1 RES     
   35893 H6        1164.2677  -939.4210  -843.9124 H6            1 RES     
   35894 H6        1164.6305  -940.2642  -842.3680 H6            1 RES     
   35895 H6        1162.6608  -938.7847  -842.2189 H6            1 RES     
   35896 H6        1163.6791  -937.3411  -842.5812 H6            1 RES     
   35897 H6        1164.9962  -937.8093  -840.4542 H6            1 RES     
   35898 H6        1163.2388  -937.6494  -840.1209 H6            1 RES     
   35899 H6        1163.9894  -939.2862  -840.1787 H6            1 RES     
   35900 C0        1170.8850  -943.4594  -846.8719 C0            1 RES     
   35901 C0        1170.3606  -943.5217  -848.3777 C0            1 RES     
   35902 C0        1170.0386  -945.0257  -848.6720 C0            1 RES     
   35903 C0        1169.7682  -945.3724  -850.1501 C0            1 RES     
   35904 C0        1169.4332  -946.8552  -850.3896 C0            1 RES     
   35905 C0        1170.5215  -947.8618  -849.9758 C0            1 RES     
   35906 C0        1171.9125  -947.6051  -850.5788 C0            1 RES     
   35907 C0        1171.9175  -947.5784  -852.1174 C0            1 RES     
   35908 C0        1173.3140  -947.3158  -852.7041 C0            1 RES     
   35909 C0        1174.3023  -948.4646  -852.4349 C0            1 RES     
   35910 C0        1175.6600  -948.2625  -853.1256 C0            1 RES     
   35911 C0        1176.4400  -947.0643  -852.5843 C0            1 RES     
   35912 C0        1169.2600  -942.5668  -849.0053 C0            1 RES     
   35913 C0        1167.7710  -942.6231  -848.5608 C0            1 RES     
   35914 C0        1167.3735  -941.4180  -847.6896 C0            1 RES     
   35915 C0        1165.9535  -941.4079  -847.1481 C0            1 RES     
   35916 C0        1164.8374  -941.1184  -848.1420 C0            1 RES     
   35917 C0        1163.5320  -940.9903  -847.3306 C0            1 RES     
   35918 C0        1162.3177  -940.5458  -848.1480 C0            1 RES     
   35919 C0        1162.4474  -939.1048  -848.6440 C0            1 RES     
   35920 H6        1170.4156  -944.2912  -846.2968 H6            1 RES     
   35921 H6        1171.9350  -943.8248  -846.9342 H6            1 RES     
   35922 H6        1171.2589  -943.2522  -848.9797 H6            1 RES     
   35923 H6        1169.1563  -945.3326  -848.0699 H6            1 RES     
   35924 H6        1170.9084  -945.6306  -848.3365 H6            1 RES     
   35925 H6        1170.6435  -945.0725  -850.7637 H6            1 RES     
   35926 H6        1168.8781  -944.8255  -850.5170 H6            1 RES     
   35927 H6        1169.2181  -946.9823  -851.4721 H6            1 RES     
   35928 H6        1168.4982  -947.1115  -849.8444 H6            1 RES     
   35929 H6        1170.1767  -948.8766  -850.2723 H6            1 RES     
   35930 H6        1170.6200  -947.8607  -848.8692 H6            1 RES     
   35931 H6        1172.3119  -946.6420  -850.1951 H6            1 RES     
   35932 H6        1172.5733  -948.4163  -850.2109 H6            1 RES     
   35933 H6        1171.2642  -946.7507  -852.4642 H6            1 RES     
   35934 H6        1171.5139  -948.5323  -852.5207 H6            1 RES     
   35935 H6        1173.2012  -947.2066  -853.8048 H6            1 RES     
   35936 H6        1173.6991  -946.3568  -852.2971 H6            1 RES     
   35937 H6        1174.4746  -948.5949  -851.3467 H6            1 RES     
   35938 H6        1173.8581  -949.4026  -852.8338 H6            1 RES     
   35939 H6        1175.5120  -948.1479  -854.2214 H6            1 RES     
   35940 H6        1176.2721  -949.1739  -852.9529 H6            1 RES     
   35941 H6        1175.9027  -946.1135  -852.7752 H6            1 RES     
   35942 H6        1176.6112  -947.1790  -851.4927 H6            1 RES     
   35943 H6        1177.4251  -947.0082  -853.0935 H6            1 RES     
   35944 H6        1169.2525  -942.8199  -850.0814 H6            1 RES     
   35945 H6        1169.6023  -941.5209  -849.1173 H6            1 RES     
   35946 H6        1167.1419  -942.5222  -849.4725 H6            1 RES     
   35947 H6        1167.5316  -943.6022  -848.0986 H6            1 RES     
   35948 H6        1167.5785  -940.4669  -848.2316 H6            1 RES     
   35949 H6        1167.9612  -941.4155  -846.7784 H6            1 RES     
   35950 H6        1165.7574  -942.3451  -846.5833 H6            1 RES     
   35951 H6        1165.9242  -940.5534  -846.4520 H6            1 RES     
   35952 H6        1165.0767  -940.1606  -848.6505 H6            1 RES     
   35953 H6        1164.7555  -941.9250  -848.9000 H6            1 RES     
   35954 H6        1163.3130  -941.9797  -846.8721 H6            1 RES     
   35955 H6        1163.6629  -940.2573  -846.5014 H6            1 RES     
   35956 H6        1161.4331  -940.5882  -847.4754 H6            1 RES     
   35957 H6        1162.1530  -941.2403  -848.9955 H6            1 RES     
   35958 H6        1163.2897  -938.9953  -849.3556 H6            1 RES     
   35959 H6        1161.5129  -938.8113  -849.1646 H6            1 RES     
   35960 H6        1162.6032  -938.4147  -847.7859 H6            1 RES     
   35961 C0        1183.7170  -941.0273  -843.9476 C0            1 RES     
   35962 C1        1182.2940  -941.2884  -843.4066 C1            1 RES     
   35963 C1        1182.3061  -941.8675  -842.1779 C1            1 RES     
   35964 S2        1180.7810  -942.2483  -841.6020 S2            1 RES     
   35965 C1        1180.0317  -941.6818  -843.0191 C1            1 RES     
   35966 C1        1180.9895  -941.2066  -843.9216 C1            1 RES     
   35967 C1        1183.6460  -942.0819  -841.7890 C1            1 RES     
   35968 C1        1184.4722  -941.6991  -842.7998 C1            1 RES     
   35969 C1        1185.8013  -942.0144  -842.5440 C1            1 RES     
   35970 C1        1185.9327  -942.6162  -841.2812 C1            1 RES     
   35971 S2        1184.4342  -942.7744  -840.4983 S2            1 RES     
   35972 H3        1180.7189  -940.8766  -844.9065 H3            1 RES     
   35973 H3        1186.6200  -941.8258  -843.2281 H3            1 RES     
   35974 N4        1188.8776  -943.1770  -839.0310 N4            1 RES     
   35975 C1        1187.7563  -942.6165  -839.5718 C1            1 RES     
   35976 C1        1187.1565  -943.1724  -840.7151 C1            1 RES     
   35977 C1        1187.7262  -944.3226  -841.2641 C1            1 RES     
   35978 N4        1187.2145  -944.9906  -842.3297 N4            1 RES     
   35979 S2        1188.2519  -946.2694  -842.4728 S2            1 RES     
   35980 N4        1189.3403  -946.0341  -841.2487 N4            1 RES     
   35981 C1        1188.8791  -944.8967  -840.6722 C1            1 RES     
   35982 C1        1189.4533  -944.2953  -839.5554 C1            1 RES     
   35983 H5        1187.3326  -941.7263  -839.1150 H5            1 RES     
   35984 C0        1184.2346  -939.5523  -844.0865 C0            1 RES     
   35985 C0        1184.6486  -938.5090  -842.9811 C0            1 RES     
   35986 C0        1184.9493  -937.1823  -843.7633 C0            1 RES     
   35987 C0        1185.4536  -935.9914  -842.9388 C0            1 RES     
   35988 C0        1185.6667  -934.7271  -843.8041 C0            1 RES     
   35989 C0        1186.7338  -934.8441  -844.9148 C0            1 RES     
   35990 C0        1188.1268  -935.2842  -844.4312 C0            1 RES     
   35991 C0        1188.7141  -934.3526  -843.3562 C0            1 RES     
   35992 C0        1190.0790  -934.8249  -842.8351 C0            1 RES     
   35993 C0        1191.1906  -934.7509  -843.8956 C0            1 RES     
   35994 C0        1192.5733  -935.1162  -843.3325 C0            1 RES     
   35995 C0        1192.6767  -936.5759  -842.8890 C0            1 RES     
   35996 C0        1183.7079  -938.2674  -841.7556 C0            1 RES     
   35997 C0        1182.2945  -937.6505  -841.9892 C0            1 RES     
   35998 C0        1181.2350  -938.6293  -841.4741 C0            1 RES     
   35999 C0        1179.7839  -938.3961  -841.8849 C0            1 RES     
   36000 C0        1179.0237  -937.3302  -841.1093 C0            1 RES     
   36001 C0        1177.5791  -937.2956  -841.6510 C0            1 RES     
   36002 C0        1176.6265  -936.4073  -840.8475 C0            1 RES     
   36003 C0        1176.3470  -936.9693  -839.4521 C0            1 RES     
   36004 H6        1183.5129  -939.0374  -844.6678 H6            1 RES     
   36005 H6        1185.1560  -939.6437  -844.7049 H6            1 RES     
   36006 H6        1185.5991  -938.8787  -842.5357 H6            1 RES     
   36007 H6        1184.0274  -936.8497  -844.2888 H6            1 RES     
   36008 H6        1185.7123  -937.4116  -844.5377 H6            1 RES     
   36009 H6        1186.3879  -936.2642  -842.4074 H6            1 RES     
   36010 H6        1184.6889  -935.7210  -842.1828 H6            1 RES     
   36011 H6        1185.9420  -933.8900  -843.1297 H6            1 RES     
   36012 H6        1184.7030  -934.4425  -844.2817 H6            1 RES     
   36013 H6        1186.8207  -933.8538  -845.4150 H6            1 RES     
   36014 H6        1186.3920  -935.5652  -845.6879 H6            1 RES     
   36015 H6        1188.0654  -936.3179  -844.0302 H6            1 RES     
   36016 H6        1188.7927  -935.3046  -845.3188 H6            1 RES     
   36017 H6        1188.0348  -934.3444  -842.4795 H6            1 RES     
   36018 H6        1188.7933  -933.3144  -843.7467 H6            1 RES     
   36019 H6        1190.3630  -934.1611  -841.9896 H6            1 RES     
   36020 H6        1189.9700  -935.8585  -842.4447 H6            1 RES     
   36021 H6        1190.9666  -935.4179  -844.7537 H6            1 RES     
   36022 H6        1191.2430  -933.7048  -844.2685 H6            1 RES     
   36023 H6        1192.8213  -934.4483  -842.4788 H6            1 RES     
   36024 H6        1193.3270  -934.9486  -844.1319 H6            1 RES     
   36025 H6        1191.9832  -936.7945  -842.0521 H6            1 RES     
   36026 H6        1192.4511  -937.2519  -843.7410 H6            1 RES     
   36027 H6        1193.7095  -936.7806  -842.5370 H6            1 RES     
   36028 H6        1184.2395  -937.5907  -841.0527 H6            1 RES     
   36029 H6        1183.6439  -939.2127  -841.1753 H6            1 RES     
   36030 H6        1182.1840  -936.6937  -841.4312 H6            1 RES     
   36031 H6        1182.1437  -937.4410  -843.0677 H6            1 RES     
   36032 H6        1181.3250  -938.8121  -840.3826 H6            1 RES     
   36033 H6        1181.4818  -939.5422  -841.9731 H6            1 RES     
   36034 H6        1179.7432  -938.2041  -842.9598 H6            1 RES     
   36035 H6        1179.2489  -939.3560  -841.7031 H6            1 RES     
   36036 H6        1179.0383  -937.6295  -840.0399 H6            1 RES     
   36037 H6        1179.4995  -936.3326  -841.2169 H6            1 RES     
   36038 H6        1177.6148  -936.9263  -842.7010 H6            1 RES     
   36039 H6        1177.1460  -938.3216  -841.6710 H6            1 RES     
   36040 H6        1175.6569  -936.3734  -841.3913 H6            1 RES     
   36041 H6        1177.0279  -935.3742  -840.7799 H6            1 RES     
   36042 H6        1177.2654  -936.9966  -838.8332 H6            1 RES     
   36043 H6        1175.6011  -936.3299  -838.9378 H6            1 RES     
   36044 H6        1175.9313  -937.9988  -839.5306 H6            1 RES     
   36045 C0        1183.7888  -941.8159  -845.3146 C0            1 RES     
   36046 C0        1183.8977  -941.1569  -846.7638 C0            1 RES     
   36047 C0        1183.3925  -942.2365  -847.7795 C0            1 RES     
   36048 C0        1183.6543  -941.9258  -849.2672 C0            1 RES     
   36049 C0        1183.1206  -943.0011  -850.2300 C0            1 RES     
   36050 C0        1183.7068  -944.4125  -850.0472 C0            1 RES     
   36051 C0        1185.2421  -944.4919  -850.0801 C0            1 RES     
   36052 C0        1185.8562  -943.9387  -851.3782 C0            1 RES     
   36053 C0        1187.3912  -944.0206  -851.3930 C0            1 RES     
   36054 C0        1187.9134  -945.4681  -851.4241 C0            1 RES     
   36055 C0        1189.4412  -945.5522  -851.5651 C0            1 RES     
   36056 C0        1190.1906  -944.9900  -850.3570 C0            1 RES     
   36057 C0        1183.3730  -939.7119  -847.1555 C0            1 RES     
   36058 C0        1181.8568  -939.3687  -847.1926 C0            1 RES     
   36059 C0        1181.4271  -938.4832  -846.0091 C0            1 RES     
   36060 C0        1179.9492  -938.1415  -845.9156 C0            1 RES     
   36061 C0        1179.4070  -937.1389  -846.9246 C0            1 RES     
   36062 C0        1177.9516  -936.8305  -846.5175 C0            1 RES     
   36063 C0        1177.2869  -935.7191  -847.3317 C0            1 RES     
   36064 C0        1177.9165  -934.3503  -847.0685 C0            1 RES     
   36065 H6        1182.9598  -942.5613  -845.3238 H6            1 RES     
   36066 H6        1184.6697  -942.4947  -845.2575 H6            1 RES     
   36067 H6        1184.9956  -941.0451  -846.9193 H6            1 RES     
   36068 H6        1182.3006  -942.3865  -847.6366 H6            1 RES     
   36069 H6        1183.9033  -943.1936  -847.5390 H6            1 RES     
   36070 H6        1184.7429  -941.7753  -849.4248 H6            1 RES     
   36071 H6        1183.1248  -941.0004  -849.5660 H6            1 RES     
   36072 H6        1183.3252  -942.6579  -851.2666 H6            1 RES     
   36073 H6        1182.0152  -943.0685  -850.1266 H6            1 RES     
   36074 H6        1183.2905  -945.0603  -850.8495 H6            1 RES     
   36075 H6        1183.3608  -944.8303  -849.0777 H6            1 RES     
   36076 H6        1185.6614  -943.9389  -849.2125 H6            1 RES     
   36077 H6        1185.5079  -945.5620  -849.9602 H6            1 RES     
   36078 H6        1185.5924  -942.8644  -851.4706 H6            1 RES     
   36079 H6        1185.4427  -944.4754  -852.2593 H6            1 RES     
   36080 H6        1187.7466  -943.5044  -852.3114 H6            1 RES     
   36081 H6        1187.7878  -943.4739  -850.5112 H6            1 RES     
   36082 H6        1187.6113  -946.0201  -850.5102 H6            1 RES     
   36083 H6        1187.4655  -945.9778  -852.3050 H6            1 RES     
   36084 H6        1189.7644  -945.0200  -852.4861 H6            1 RES     
   36085 H6        1189.7179  -946.6234  -851.6697 H6            1 RES     
   36086 H6        1189.9965  -943.9058  -850.2305 H6            1 RES     
   36087 H6        1189.8897  -945.5292  -849.4336 H6            1 RES     
   36088 H6        1191.2822  -945.1263  -850.5072 H6            1 RES     
   36089 H6        1183.7324  -939.5557  -848.1891 H6            1 RES     
   36090 H6        1183.9542  -938.8951  -846.6879 H6            1 RES     
   36091 H6        1181.6753  -938.7358  -848.0892 H6            1 RES     
   36092 H6        1181.2448  -940.2865  -847.3045 H6            1 RES     
   36093 H6        1182.0335  -937.5494  -845.9871 H6            1 RES     
   36094 H6        1181.5948  -939.0115  -845.0772 H6            1 RES     
   36095 H6        1179.3449  -939.0746  -845.9096 H6            1 RES     
   36096 H6        1179.8393  -937.6333  -844.9434 H6            1 RES     
   36097 H6        1180.0323  -936.2233  -846.8619 H6            1 RES     
   36098 H6        1179.4526  -937.5436  -847.9571 H6            1 RES     
   36099 H6        1177.3570  -937.7635  -846.6318 H6            1 RES     
   36100 H6        1177.9055  -936.5320  -845.4448 H6            1 RES     
   36101 H6        1176.2237  -935.6641  -847.0097 H6            1 RES     
   36102 H6        1177.3184  -935.9657  -848.4115 H6            1 RES     
   36103 H6        1178.9719  -934.3183  -847.4045 H6            1 RES     
   36104 H6        1177.3515  -933.5744  -847.6246 H6            1 RES     
   36105 H6        1177.8718  -934.1080  -845.9840 H6            1 RES     
   36106 C0        1194.6356  -945.4271  -838.3553 C0            1 RES     
   36107 C1        1193.0952  -945.3184  -838.3856 C1            1 RES     
   36108 C1        1192.4955  -946.2479  -837.5971 C1            1 RES     
   36109 S2        1190.8237  -946.2173  -837.6786 S2            1 RES     
   36110 C1        1190.8363  -944.9634  -838.8268 C1            1 RES     
   36111 C1        1192.1508  -944.5918  -839.1297 C1            1 RES     
   36112 C1        1193.4916  -947.0585  -837.0111 C1            1 RES     
   36113 C1        1194.7106  -946.6810  -837.4827 C1            1 RES     
   36114 C1        1195.7269  -947.5287  -837.0586 C1            1 RES     
   36115 C1        1195.2153  -948.5334  -836.2201 C1            1 RES     
   36116 S2        1193.5354  -948.3917  -836.0174 S2            1 RES     
   36117 H3        1192.3688  -943.8670  -839.8909 H3            1 RES     
   36118 H3        1196.7680  -947.4292  -837.3416 H3            1 RES     
   36119 N4        1196.8372  -950.8748  -833.7833 N4            1 RES     
   36120 C1        1196.1725  -949.7927  -834.2848 C1            1 RES     
   36121 C1        1195.9625  -949.6580  -835.6681 C1            1 RES     
   36122 C1        1196.4317  -950.6704  -836.5070 C1            1 RES     
   36123 N4        1196.2450  -950.6916  -837.8517 N4            1 RES     
   36124 S2        1196.9440  -952.1268  -838.2801 S2            1 RES     
   36125 N4        1197.4875  -952.7455  -836.8448 N4            1 RES     
   36126 C1        1197.1015  -951.7934  -835.9598 C1            1 RES     
   36127 C1        1197.3091  -951.8704  -834.5851 C1            1 RES     
   36128 H5        1195.8123  -949.0265  -833.6038 H5            1 RES     
   36129 C0        1195.4790  -944.2946  -837.6705 C0            1 RES     
   36130 C0        1195.6460  -943.9271  -836.1477 C0            1 RES     
   36131 C0        1196.5153  -942.6208  -836.1354 C0            1 RES     
   36132 C0        1196.9058  -942.0619  -834.7615 C0            1 RES     
   36133 C0        1197.7158  -940.7486  -834.8711 C0            1 RES     
   36134 C0        1199.0782  -940.8566  -835.5908 C0            1 RES     
   36135 C0        1200.0345  -941.9143  -835.0123 C0            1 RES     
   36136 C0        1200.3434  -941.6964  -833.5204 C0            1 RES     
   36137 C0        1201.2528  -942.7846  -832.9319 C0            1 RES     
   36138 C0        1202.6776  -942.7613  -833.5106 C0            1 RES     
   36139 C0        1203.6102  -943.7781  -832.8332 C0            1 RES     
   36140 C0        1203.2050  -945.2303  -833.0884 C0            1 RES     
   36141 C0        1194.3789  -943.7975  -835.2406 C0            1 RES     
   36142 C0        1193.3455  -942.6661  -835.5315 C0            1 RES     
   36143 C0        1191.9806  -943.3015  -835.8132 C0            1 RES     
   36144 C0        1190.8980  -942.4265  -836.4385 C0            1 RES     
   36145 C0        1190.1512  -941.4953  -835.4947 C0            1 RES     
   36146 C0        1189.0818  -940.7489  -836.3197 C0            1 RES     
   36147 C0        1188.1130  -939.9104  -835.4829 C0            1 RES     
   36148 C0        1187.1913  -940.7760  -834.6211 C0            1 RES     
   36149 H6        1195.1769  -943.3844  -838.1223 H6            1 RES     
   36150 H6        1196.5239  -944.4973  -837.9972 H6            1 RES     
   36151 H6        1196.2379  -944.7487  -835.6860 H6            1 RES     
   36152 H6        1195.9722  -941.8141  -836.6746 H6            1 RES     
   36153 H6        1197.4495  -942.8307  -836.6989 H6            1 RES     
   36154 H6        1197.4710  -942.8236  -834.1868 H6            1 RES     
   36155 H6        1195.9865  -941.8096  -834.1954 H6            1 RES     
   36156 H6        1197.8823  -940.3595  -833.8454 H6            1 RES     
   36157 H6        1197.1059  -939.9846  -835.4023 H6            1 RES     
   36158 H6        1199.5715  -939.8600  -835.5463 H6            1 RES     
   36159 H6        1198.9167  -941.0870  -836.6656 H6            1 RES     
   36160 H6        1199.5934  -942.9235  -835.1542 H6            1 RES     
   36161 H6        1200.9727  -941.8690  -835.6033 H6            1 RES     
   36162 H6        1199.3948  -941.7436  -832.9477 H6            1 RES     
   36163 H6        1200.7974  -940.6936  -833.3627 H6            1 RES     
   36164 H6        1201.3216  -942.6076  -831.8364 H6            1 RES     
   36165 H6        1200.7733  -943.7725  -833.0953 H6            1 RES     
   36166 H6        1202.6666  -942.9587  -834.6026 H6            1 RES     
   36167 H6        1203.1025  -941.7479  -833.3415 H6            1 RES     
   36168 H6        1203.6445  -943.5871  -831.7383 H6            1 RES     
   36169 H6        1204.6338  -943.6331  -833.2411 H6            1 RES     
   36170 H6        1202.2091  -945.4544  -832.6560 H6            1 RES     
   36171 H6        1203.1882  -945.4370  -834.1796 H6            1 RES     
   36172 H6        1203.9436  -945.9072  -832.6101 H6            1 RES     
   36173 H6        1194.7276  -943.6508  -834.1960 H6            1 RES     
   36174 H6        1193.8846  -944.7914  -835.1906 H6            1 RES     
   36175 H6        1193.2399  -941.9920  -834.6520 H6            1 RES     
   36176 H6        1193.6804  -942.0570  -836.3955 H6            1 RES     
   36177 H6        1191.5922  -943.8698  -834.9419 H6            1 RES     
   36178 H6        1192.1945  -944.0080  -836.5868 H6            1 RES     
   36179 H6        1191.3260  -941.8740  -837.2786 H6            1 RES     
   36180 H6        1190.1365  -943.1225  -836.8582 H6            1 RES     
   36181 H6        1189.6783  -942.1289  -834.7147 H6            1 RES     
   36182 H6        1190.8392  -940.7707  -835.0102 H6            1 RES     
   36183 H6        1189.6075  -940.0799  -837.0383 H6            1 RES     
   36184 H6        1188.4757  -941.4696  -836.9146 H6            1 RES     
   36185 H6        1187.4682  -939.3378  -836.1855 H6            1 RES     
   36186 H6        1188.6736  -939.1884  -834.8526 H6            1 RES     
   36187 H6        1187.7624  -941.3500  -833.8650 H6            1 RES     
   36188 H6        1186.4654  -940.1281  -834.0891 H6            1 RES     
   36189 H6        1186.6230  -941.4858  -835.2629 H6            1 RES     
   36190 C0        1195.0614  -945.6620  -839.8583 C0            1 RES     
   36191 C0        1195.8732  -944.6316  -840.7668 C0            1 RES     
   36192 C0        1195.5816  -945.0279  -842.2535 C0            1 RES     
   36193 C0        1196.4678  -944.3411  -843.3123 C0            1 RES     
   36194 C0        1196.1310  -944.7415  -844.7595 C0            1 RES     
   36195 C0        1196.2698  -946.2387  -845.0884 C0            1 RES     
   36196 C0        1197.6358  -946.8584  -844.7496 C0            1 RES     
   36197 C0        1198.8159  -946.1566  -845.4446 C0            1 RES     
   36198 C0        1200.1739  -946.7846  -845.0916 C0            1 RES     
   36199 C0        1200.3315  -948.2157  -845.6359 C0            1 RES     
   36200 C0        1201.7322  -948.7992  -845.3934 C0            1 RES     
   36201 C0        1202.0517  -949.0058  -843.9127 C0            1 RES     
   36202 C0        1195.8786  -943.0556  -840.5846 C0            1 RES     
   36203 C0        1194.6157  -942.1908  -840.8588 C0            1 RES     
   36204 C0        1193.9639  -941.6777  -839.5621 C0            1 RES     
   36205 C0        1192.6836  -940.8734  -839.7155 C0            1 RES     
   36206 C0        1192.8176  -939.4599  -840.2642 C0            1 RES     
   36207 C0        1191.4269  -938.8010  -840.1595 C0            1 RES     
   36208 C0        1191.3992  -937.3158  -840.5251 C0            1 RES     
   36209 C0        1192.1613  -936.4551  -839.5163 C0            1 RES     
   36210 H6        1194.1598  -945.9990  -840.4209 H6            1 RES     
   36211 H6        1195.6750  -946.5908  -839.8857 H6            1 RES     
   36212 H6        1196.9391  -944.8834  -840.5607 H6            1 RES     
   36213 H6        1194.5175  -944.8069  -842.4861 H6            1 RES     
   36214 H6        1195.7312  -946.1250  -842.3476 H6            1 RES     
   36215 H6        1197.5348  -944.5553  -843.0930 H6            1 RES     
   36216 H6        1196.3175  -943.2444  -843.2872 H6            1 RES     
   36217 H6        1196.7964  -944.1616  -845.4341 H6            1 RES     
   36218 H6        1195.0887  -944.4306  -844.9918 H6            1 RES     
   36219 H6        1196.0695  -946.3684  -846.1745 H6            1 RES     
   36220 H6        1195.4880  -946.8080  -844.5418 H6            1 RES     
   36221 H6        1197.7922  -946.8343  -843.6499 H6            1 RES     
   36222 H6        1197.5889  -947.9216  -845.0617 H6            1 RES     
   36223 H6        1198.8547  -945.1000  -845.1066 H6            1 RES     
   36224 H6        1198.6736  -946.1641  -846.5469 H6            1 RES     
   36225 H6        1200.9659  -946.1514  -845.5475 H6            1 RES     
   36226 H6        1200.3031  -946.7626  -843.9886 H6            1 RES     
   36227 H6        1199.5810  -948.8978  -845.1860 H6            1 RES     
   36228 H6        1200.1645  -948.1872  -846.7348 H6            1 RES     
   36229 H6        1202.5000  -948.1395  -845.8528 H6            1 RES     
   36230 H6        1201.7829  -949.7899  -845.8945 H6            1 RES     
   36231 H6        1202.0690  -948.0419  -843.3653 H6            1 RES     
   36232 H6        1201.3013  -949.6807  -843.4486 H6            1 RES     
   36233 H6        1203.0549  -949.4716  -843.8160 H6            1 RES     
   36234 H6        1196.6397  -942.6950  -841.3006 H6            1 RES     
   36235 H6        1196.3950  -942.7246  -839.6640 H6            1 RES     
   36236 H6        1194.9457  -941.2676  -841.3842 H6            1 RES     
   36237 H6        1193.9099  -942.7208  -841.5299 H6            1 RES     
   36238 H6        1194.7035  -941.1008  -838.9617 H6            1 RES     
   36239 H6        1193.6310  -942.5177  -838.9628 H6            1 RES     
   36240 H6        1191.9350  -941.4602  -840.2911 H6            1 RES     
   36241 H6        1192.3166  -940.7303  -838.6858 H6            1 RES     
   36242 H6        1193.5541  -938.9197  -839.6325 H6            1 RES     
   36243 H6        1193.1738  -939.4691  -841.3154 H6            1 RES     
   36244 H6        1190.7342  -939.3496  -840.8350 H6            1 RES     
   36245 H6        1191.0310  -938.8971  -839.1222 H6            1 RES     
   36246 H6        1190.3359  -936.9902  -840.5046 H6            1 RES     
   36247 H6        1191.7964  -937.1670  -841.5487 H6            1 RES     
   36248 H6        1193.2424  -936.6979  -839.5113 H6            1 RES     
   36249 H6        1192.0470  -935.3855  -839.7874 H6            1 RES     
   36250 H6        1191.7495  -936.6043  -838.4940 H6            1 RES     
   36251 H5           6.3992     8.1748    11.5229 H5            1 RES     
   36252 H5        1197.8244  -952.7299  -834.1465 H5            1 RES     
@<TRIPOS>BOND
       1        1        2 1
       2        1        8 1
       3        1       24 1
       4        1       85 1
       5        2        3 1
       6        2        6 1
       7        3        4 1
       8        3        7 1
       9        4        5 1
      10        5        6 1
      11        5    36251 1
      12        6       12 1
      13        7        8 1
      14        7       11 1
      15        8        9 1
      16        9       10 1
      17        9       13 1
      18       10       11 1
      19       10       16 1
      20       14       15 1
      21       14       22 1
      22       15       16 1
      23       15       23 1
      24       16       17 1
      25       17       18 1
      26       17       21 1
      27       18       19 1
      28       19       20 1
      29       20       21 1
      30       21       22 1
      31       22      150 1
      32       24       25 1
      33       24       44 1
      34       24       45 1
      35       25       26 1
      36       25       36 1
      37       25       46 1
      38       26       27 1
      39       26       47 1
      40       26       48 1
      41       27       28 1
      42       27       49 1
      43       27       50 1
      44       28       29 1
      45       28       51 1
      46       28       52 1
      47       29       30 1
      48       29       53 1
      49       29       54 1
      50       30       31 1
      51       30       55 1
      52       30       56 1
      53       31       32 1
      54       31       57 1
      55       31       58 1
      56       32       33 1
      57       32       59 1
      58       32       60 1
      59       33       34 1
      60       33       61 1
      61       33       62 1
      62       34       35 1
      63       34       63 1
      64       34       64 1
      65       35       65 1
      66       35       66 1
      67       35       67 1
      68       36       37 1
      69       36       68 1
      70       36       69 1
      71       37       38 1
      72       37       70 1
      73       37       71 1
      74       38       39 1
      75       38       72 1
      76       38       73 1
      77       39       40 1
      78       39       74 1
      79       39       75 1
      80       40       41 1
      81       40       76 1
      82       40       77 1
      83       41       42 1
      84       41       78 1
      85       41       79 1
      86       42       43 1
      87       42       80 1
      88       42       81 1
      89       43       82 1
      90       43       83 1
      91       43       84 1
      92       85       86 1
      93       85      105 1
      94       85      106 1
      95       86       87 1
      96       86       97 1
      97       86      107 1
      98       87       88 1
      99       87      108 1
     100       87      109 1
     101       88       89 1
     102       88      110 1
     103       88      111 1
     104       89       90 1
     105       89      112 1
     106       89      113 1
     107       90       91 1
     108       90      114 1
     109       90      115 1
     110       91       92 1
     111       91      116 1
     112       91      117 1
     113       92       93 1
     114       92      118 1
     115       92      119 1
     116       93       94 1
     117       93      120 1
     118       93      121 1
     119       94       95 1
     120       94      122 1
     121       94      123 1
     122       95       96 1
     123       95      124 1
     124       95      125 1
     125       96      126 1
     126       96      127 1
     127       96      128 1
     128       97       98 1
     129       97      129 1
     130       97      130 1
     131       98       99 1
     132       98      131 1
     133       98      132 1
     134       99      100 1
     135       99      133 1
     136       99      134 1
     137      100      101 1
     138      100      135 1
     139      100      136 1
     140      101      102 1
     141      101      137 1
     142      101      138 1
     143      102      103 1
     144      102      139 1
     145      102      140 1
     146      103      104 1
     147      103      141 1
     148      103      142 1
     149      104      143 1
     150      104      144 1
     151      104      145 1
     152      146      147 1
     153      146      153 1
     154      146      169 1
     155      146      230 1
     156      147      148 1
     157      147      151 1
     158      148      149 1
     159      148      152 1
     160      149      150 1
     161      150      151 1
     162      151      157 1
     163      152      153 1
     164      152      156 1
     165      153      154 1
     166      154      155 1
     167      154      158 1
     168      155      156 1
     169      155      161 1
     170      159      160 1
     171      159      167 1
     172      160      161 1
     173      160      168 1
     174      161      162 1
     175      162      163 1
     176      162      166 1
     177      163      164 1
     178      164      165 1
     179      165      166 1
     180      166      167 1
     181      167      295 1
     182      169      170 1
     183      169      189 1
     184      169      190 1
     185      170      171 1
     186      170      181 1
     187      170      191 1
     188      171      172 1
     189      171      192 1
     190      171      193 1
     191      172      173 1
     192      172      194 1
     193      172      195 1
     194      173      174 1
     195      173      196 1
     196      173      197 1
     197      174      175 1
     198      174      198 1
     199      174      199 1
     200      175      176 1
     201      175      200 1
     202      175      201 1
     203      176      177 1
     204      176      202 1
     205      176      203 1
     206      177      178 1
     207      177      204 1
     208      177      205 1
     209      178      179 1
     210      178      206 1
     211      178      207 1
     212      179      180 1
     213      179      208 1
     214      179      209 1
     215      180      210 1
     216      180      211 1
     217      180      212 1
     218      181      182 1
     219      181      213 1
     220      181      214 1
     221      182      183 1
     222      182      215 1
     223      182      216 1
     224      183      184 1
     225      183      217 1
     226      183      218 1
     227      184      185 1
     228      184      219 1
     229      184      220 1
     230      185      186 1
     231      185      221 1
     232      185      222 1
     233      186      187 1
     234      186      223 1
     235      186      224 1
     236      187      188 1
     237      187      225 1
     238      187      226 1
     239      188      227 1
     240      188      228 1
     241      188      229 1
     242      230      231 1
     243      230      250 1
     244      230      251 1
     245      231      232 1
     246      231      242 1
     247      231      252 1
     248      232      233 1
     249      232      253 1
     250      232      254 1
     251      233      234 1
     252      233      255 1
     253      233      256 1
     254      234      235 1
     255      234      257 1
     256      234      258 1
     257      235      236 1
     258      235      259 1
     259      235      260 1
     260      236      237 1
     261      236      261 1
     262      236      262 1
     263      237      238 1
     264      237      263 1
     265      237      264 1
     266      238      239 1
     267      238      265 1
     268      238      266 1
     269      239      240 1
     270      239      267 1
     271      239      268 1
     272      240      241 1
     273      240      269 1
     274      240      270 1
     275      241      271 1
     276      241      272 1
     277      241      273 1
     278      242      243 1
     279      242      274 1
     280      242      275 1
     281      243      244 1
     282      243      276 1
     283      243      277 1
     284      244      245 1
     285      244      278 1
     286      244      279 1
     287      245      246 1
     288      245      280 1
     289      245      281 1
     290      246      247 1
     291      246      282 1
     292      246      283 1
     293      247      248 1
     294      247      284 1
     295      247      285 1
     296      248      249 1
     297      248      286 1
     298      248      287 1
     299      249      288 1
     300      249      289 1
     301      249      290 1
     302      291      292 1
     303      291      298 1
     304      291      314 1
     305      291      375 1
     306      292      293 1
     307      292      296 1
     308      293      294 1
     309      293      297 1
     310      294      295 1
     311      295      296 1
     312      296      302 1
     313      297      298 1
     314      297      301 1
     315      298      299 1
     316      299      300 1
     317      299      303 1
     318      300      301 1
     319      300      306 1
     320      304      305 1
     321      304      312 1
     322      305      306 1
     323      305      313 1
     324      306      307 1
     325      307      308 1
     326      307      311 1
     327      308      309 1
     328      309      310 1
     329      310      311 1
     330      311      312 1
     331      312      440 1
     332      314      315 1
     333      314      334 1
     334      314      335 1
     335      315      316 1
     336      315      326 1
     337      315      336 1
     338      316      317 1
     339      316      337 1
     340      316      338 1
     341      317      318 1
     342      317      339 1
     343      317      340 1
     344      318      319 1
     345      318      341 1
     346      318      342 1
     347      319      320 1
     348      319      343 1
     349      319      344 1
     350      320      321 1
     351      320      345 1
     352      320      346 1
     353      321      322 1
     354      321      347 1
     355      321      348 1
     356      322      323 1
     357      322      349 1
     358      322      350 1
     359      323      324 1
     360      323      351 1
     361      323      352 1
     362      324      325 1
     363      324      353 1
     364      324      354 1
     365      325      355 1
     366      325      356 1
     367      325      357 1
     368      326      327 1
     369      326      358 1
     370      326      359 1
     371      327      328 1
     372      327      360 1
     373      327      361 1
     374      328      329 1
     375      328      362 1
     376      328      363 1
     377      329      330 1
     378      329      364 1
     379      329      365 1
     380      330      331 1
     381      330      366 1
     382      330      367 1
     383      331      332 1
     384      331      368 1
     385      331      369 1
     386      332      333 1
     387      332      370 1
     388      332      371 1
     389      333      372 1
     390      333      373 1
     391      333      374 1
     392      375      376 1
     393      375      395 1
     394      375      396 1
     395      376      377 1
     396      376      387 1
     397      376      397 1
     398      377      378 1
     399      377      398 1
     400      377      399 1
     401      378      379 1
     402      378      400 1
     403      378      401 1
     404      379      380 1
     405      379      402 1
     406      379      403 1
     407      380      381 1
     408      380      404 1
     409      380      405 1
     410      381      382 1
     411      381      406 1
     412      381      407 1
     413      382      383 1
     414      382      408 1
     415      382      409 1
     416      383      384 1
     417      383      410 1
     418      383      411 1
     419      384      385 1
     420      384      412 1
     421      384      413 1
     422      385      386 1
     423      385      414 1
     424      385      415 1
     425      386      416 1
     426      386      417 1
     427      386      418 1
     428      387      388 1
     429      387      419 1
     430      387      420 1
     431      388      389 1
     432      388      421 1
     433      388      422 1
     434      389      390 1
     435      389      423 1
     436      389      424 1
     437      390      391 1
     438      390      425 1
     439      390      426 1
     440      391      392 1
     441      391      427 1
     442      391      428 1
     443      392      393 1
     444      392      429 1
     445      392      430 1
     446      393      394 1
     447      393      431 1
     448      393      432 1
     449      394      433 1
     450      394      434 1
     451      394      435 1
     452      436      437 1
     453      436      443 1
     454      436      459 1
     455      436      520 1
     456      437      438 1
     457      437      441 1
     458      438      439 1
     459      438      442 1
     460      439      440 1
     461      440      441 1
     462      441      447 1
     463      442      443 1
     464      442      446 1
     465      443      444 1
     466      444      445 1
     467      444      448 1
     468      445      446 1
     469      445      451 1
     470      449      450 1
     471      449      457 1
     472      450      451 1
     473      450      458 1
     474      451      452 1
     475      452      453 1
     476      452      456 1
     477      453      454 1
     478      454      455 1
     479      455      456 1
     480      456      457 1
     481      457      585 1
     482      459      460 1
     483      459      479 1
     484      459      480 1
     485      460      461 1
     486      460      471 1
     487      460      481 1
     488      461      462 1
     489      461      482 1
     490      461      483 1
     491      462      463 1
     492      462      484 1
     493      462      485 1
     494      463      464 1
     495      463      486 1
     496      463      487 1
     497      464      465 1
     498      464      488 1
     499      464      489 1
     500      465      466 1
     501      465      490 1
     502      465      491 1
     503      466      467 1
     504      466      492 1
     505      466      493 1
     506      467      468 1
     507      467      494 1
     508      467      495 1
     509      468      469 1
     510      468      496 1
     511      468      497 1
     512      469      470 1
     513      469      498 1
     514      469      499 1
     515      470      500 1
     516      470      501 1
     517      470      502 1
     518      471      472 1
     519      471      503 1
     520      471      504 1
     521      472      473 1
     522      472      505 1
     523      472      506 1
     524      473      474 1
     525      473      507 1
     526      473      508 1
     527      474      475 1
     528      474      509 1
     529      474      510 1
     530      475      476 1
     531      475      511 1
     532      475      512 1
     533      476      477 1
     534      476      513 1
     535      476      514 1
     536      477      478 1
     537      477      515 1
     538      477      516 1
     539      478      517 1
     540      478      518 1
     541      478      519 1
     542      520      521 1
     543      520      540 1
     544      520      541 1
     545      521      522 1
     546      521      532 1
     547      521      542 1
     548      522      523 1
     549      522      543 1
     550      522      544 1
     551      523      524 1
     552      523      545 1
     553      523      546 1
     554      524      525 1
     555      524      547 1
     556      524      548 1
     557      525      526 1
     558      525      549 1
     559      525      550 1
     560      526      527 1
     561      526      551 1
     562      526      552 1
     563      527      528 1
     564      527      553 1
     565      527      554 1
     566      528      529 1
     567      528      555 1
     568      528      556 1
     569      529      530 1
     570      529      557 1
     571      529      558 1
     572      530      531 1
     573      530      559 1
     574      530      560 1
     575      531      561 1
     576      531      562 1
     577      531      563 1
     578      532      533 1
     579      532      564 1
     580      532      565 1
     581      533      534 1
     582      533      566 1
     583      533      567 1
     584      534      535 1
     585      534      568 1
     586      534      569 1
     587      535      536 1
     588      535      570 1
     589      535      571 1
     590      536      537 1
     591      536      572 1
     592      536      573 1
     593      537      538 1
     594      537      574 1
     595      537      575 1
     596      538      539 1
     597      538      576 1
     598      538      577 1
     599      539      578 1
     600      539      579 1
     601      539      580 1
     602      581      582 1
     603      581      588 1
     604      581      604 1
     605      581      665 1
     606      582      583 1
     607      582      586 1
     608      583      584 1
     609      583      587 1
     610      584      585 1
     611      585      586 1
     612      586      592 1
     613      587      588 1
     614      587      591 1
     615      588      589 1
     616      589      590 1
     617      589      593 1
     618      590      591 1
     619      590      596 1
     620      594      595 1
     621      594      602 1
     622      595      596 1
     623      595      603 1
     624      596      597 1
     625      597      598 1
     626      597      601 1
     627      598      599 1
     628      599      600 1
     629      600      601 1
     630      601      602 1
     631      602      730 1
     632      604      605 1
     633      604      624 1
     634      604      625 1
     635      605      606 1
     636      605      616 1
     637      605      626 1
     638      606      607 1
     639      606      627 1
     640      606      628 1
     641      607      608 1
     642      607      629 1
     643      607      630 1
     644      608      609 1
     645      608      631 1
     646      608      632 1
     647      609      610 1
     648      609      633 1
     649      609      634 1
     650      610      611 1
     651      610      635 1
     652      610      636 1
     653      611      612 1
     654      611      637 1
     655      611      638 1
     656      612      613 1
     657      612      639 1
     658      612      640 1
     659      613      614 1
     660      613      641 1
     661      613      642 1
     662      614      615 1
     663      614      643 1
     664      614      644 1
     665      615      645 1
     666      615      646 1
     667      615      647 1
     668      616      617 1
     669      616      648 1
     670      616      649 1
     671      617      618 1
     672      617      650 1
     673      617      651 1
     674      618      619 1
     675      618      652 1
     676      618      653 1
     677      619      620 1
     678      619      654 1
     679      619      655 1
     680      620      621 1
     681      620      656 1
     682      620      657 1
     683      621      622 1
     684      621      658 1
     685      621      659 1
     686      622      623 1
     687      622      660 1
     688      622      661 1
     689      623      662 1
     690      623      663 1
     691      623      664 1
     692      665      666 1
     693      665      685 1
     694      665      686 1
     695      666      667 1
     696      666      677 1
     697      666      687 1
     698      667      668 1
     699      667      688 1
     700      667      689 1
     701      668      669 1
     702      668      690 1
     703      668      691 1
     704      669      670 1
     705      669      692 1
     706      669      693 1
     707      670      671 1
     708      670      694 1
     709      670      695 1
     710      671      672 1
     711      671      696 1
     712      671      697 1
     713      672      673 1
     714      672      698 1
     715      672      699 1
     716      673      674 1
     717      673      700 1
     718      673      701 1
     719      674      675 1
     720      674      702 1
     721      674      703 1
     722      675      676 1
     723      675      704 1
     724      675      705 1
     725      676      706 1
     726      676      707 1
     727      676      708 1
     728      677      678 1
     729      677      709 1
     730      677      710 1
     731      678      679 1
     732      678      711 1
     733      678      712 1
     734      679      680 1
     735      679      713 1
     736      679      714 1
     737      680      681 1
     738      680      715 1
     739      680      716 1
     740      681      682 1
     741      681      717 1
     742      681      718 1
     743      682      683 1
     744      682      719 1
     745      682      720 1
     746      683      684 1
     747      683      721 1
     748      683      722 1
     749      684      723 1
     750      684      724 1
     751      684      725 1
     752      726      727 1
     753      726      733 1
     754      726      749 1
     755      726      810 1
     756      727      728 1
     757      727      731 1
     758      728      729 1
     759      728      732 1
     760      729      730 1
     761      730      731 1
     762      731      737 1
     763      732      733 1
     764      732      736 1
     765      733      734 1
     766      734      735 1
     767      734      738 1
     768      735      736 1
     769      735      741 1
     770      739      740 1
     771      739      747 1
     772      740      741 1
     773      740      748 1
     774      741      742 1
     775      742      743 1
     776      742      746 1
     777      743      744 1
     778      744      745 1
     779      745      746 1
     780      746      747 1
     781      747      875 1
     782      749      750 1
     783      749      769 1
     784      749      770 1
     785      750      751 1
     786      750      761 1
     787      750      771 1
     788      751      752 1
     789      751      772 1
     790      751      773 1
     791      752      753 1
     792      752      774 1
     793      752      775 1
     794      753      754 1
     795      753      776 1
     796      753      777 1
     797      754      755 1
     798      754      778 1
     799      754      779 1
     800      755      756 1
     801      755      780 1
     802      755      781 1
     803      756      757 1
     804      756      782 1
     805      756      783 1
     806      757      758 1
     807      757      784 1
     808      757      785 1
     809      758      759 1
     810      758      786 1
     811      758      787 1
     812      759      760 1
     813      759      788 1
     814      759      789 1
     815      760      790 1
     816      760      791 1
     817      760      792 1
     818      761      762 1
     819      761      793 1
     820      761      794 1
     821      762      763 1
     822      762      795 1
     823      762      796 1
     824      763      764 1
     825      763      797 1
     826      763      798 1
     827      764      765 1
     828      764      799 1
     829      764      800 1
     830      765      766 1
     831      765      801 1
     832      765      802 1
     833      766      767 1
     834      766      803 1
     835      766      804 1
     836      767      768 1
     837      767      805 1
     838      767      806 1
     839      768      807 1
     840      768      808 1
     841      768      809 1
     842      810      811 1
     843      810      830 1
     844      810      831 1
     845      811      812 1
     846      811      822 1
     847      811      832 1
     848      812      813 1
     849      812      833 1
     850      812      834 1
     851      813      814 1
     852      813      835 1
     853      813      836 1
     854      814      815 1
     855      814      837 1
     856      814      838 1
     857      815      816 1
     858      815      839 1
     859      815      840 1
     860      816      817 1
     861      816      841 1
     862      816      842 1
     863      817      818 1
     864      817      843 1
     865      817      844 1
     866      818      819 1
     867      818      845 1
     868      818      846 1
     869      819      820 1
     870      819      847 1
     871      819      848 1
     872      820      821 1
     873      820      849 1
     874      820      850 1
     875      821      851 1
     876      821      852 1
     877      821      853 1
     878      822      823 1
     879      822      854 1
     880      822      855 1
     881      823      824 1
     882      823      856 1
     883      823      857 1
     884      824      825 1
     885      824      858 1
     886      824      859 1
     887      825      826 1
     888      825      860 1
     889      825      861 1
     890      826      827 1
     891      826      862 1
     892      826      863 1
     893      827      828 1
     894      827      864 1
     895      827      865 1
     896      828      829 1
     897      828      866 1
     898      828      867 1
     899      829      868 1
     900      829      869 1
     901      829      870 1
     902      871      872 1
     903      871      878 1
     904      871      894 1
     905      871      955 1
     906      872      873 1
     907      872      876 1
     908      873      874 1
     909      873      877 1
     910      874      875 1
     911      875      876 1
     912      876      882 1
     913      877      878 1
     914      877      881 1
     915      878      879 1
     916      879      880 1
     917      879      883 1
     918      880      881 1
     919      880      886 1
     920      884      885 1
     921      884      892 1
     922      885      886 1
     923      885      893 1
     924      886      887 1
     925      887      888 1
     926      887      891 1
     927      888      889 1
     928      889      890 1
     929      890      891 1
     930      891      892 1
     931      892     1020 1
     932      894      895 1
     933      894      914 1
     934      894      915 1
     935      895      896 1
     936      895      906 1
     937      895      916 1
     938      896      897 1
     939      896      917 1
     940      896      918 1
     941      897      898 1
     942      897      919 1
     943      897      920 1
     944      898      899 1
     945      898      921 1
     946      898      922 1
     947      899      900 1
     948      899      923 1
     949      899      924 1
     950      900      901 1
     951      900      925 1
     952      900      926 1
     953      901      902 1
     954      901      927 1
     955      901      928 1
     956      902      903 1
     957      902      929 1
     958      902      930 1
     959      903      904 1
     960      903      931 1
     961      903      932 1
     962      904      905 1
     963      904      933 1
     964      904      934 1
     965      905      935 1
     966      905      936 1
     967      905      937 1
     968      906      907 1
     969      906      938 1
     970      906      939 1
     971      907      908 1
     972      907      940 1
     973      907      941 1
     974      908      909 1
     975      908      942 1
     976      908      943 1
     977      909      910 1
     978      909      944 1
     979      909      945 1
     980      910      911 1
     981      910      946 1
     982      910      947 1
     983      911      912 1
     984      911      948 1
     985      911      949 1
     986      912      913 1
     987      912      950 1
     988      912      951 1
     989      913      952 1
     990      913      953 1
     991      913      954 1
     992      955      956 1
     993      955      975 1
     994      955      976 1
     995      956      957 1
     996      956      967 1
     997      956      977 1
     998      957      958 1
     999      957      978 1
    1000      957      979 1
    1001      958      959 1
    1002      958      980 1
    1003      958      981 1
    1004      959      960 1
    1005      959      982 1
    1006      959      983 1
    1007      960      961 1
    1008      960      984 1
    1009      960      985 1
    1010      961      962 1
    1011      961      986 1
    1012      961      987 1
    1013      962      963 1
    1014      962      988 1
    1015      962      989 1
    1016      963      964 1
    1017      963      990 1
    1018      963      991 1
    1019      964      965 1
    1020      964      992 1
    1021      964      993 1
    1022      965      966 1
    1023      965      994 1
    1024      965      995 1
    1025      966      996 1
    1026      966      997 1
    1027      966      998 1
    1028      967      968 1
    1029      967      999 1
    1030      967     1000 1
    1031      968      969 1
    1032      968     1001 1
    1033      968     1002 1
    1034      969      970 1
    1035      969     1003 1
    1036      969     1004 1
    1037      970      971 1
    1038      970     1005 1
    1039      970     1006 1
    1040      971      972 1
    1041      971     1007 1
    1042      971     1008 1
    1043      972      973 1
    1044      972     1009 1
    1045      972     1010 1
    1046      973      974 1
    1047      973     1011 1
    1048      973     1012 1
    1049      974     1013 1
    1050      974     1014 1
    1051      974     1015 1
    1052     1016     1017 1
    1053     1016     1023 1
    1054     1016     1039 1
    1055     1016     1100 1
    1056     1017     1018 1
    1057     1017     1021 1
    1058     1018     1019 1
    1059     1018     1022 1
    1060     1019     1020 1
    1061     1020     1021 1
    1062     1021     1027 1
    1063     1022     1023 1
    1064     1022     1026 1
    1065     1023     1024 1
    1066     1024     1025 1
    1067     1024     1028 1
    1068     1025     1026 1
    1069     1025     1031 1
    1070     1029     1030 1
    1071     1029     1037 1
    1072     1030     1031 1
    1073     1030     1038 1
    1074     1031     1032 1
    1075     1032     1033 1
    1076     1032     1036 1
    1077     1033     1034 1
    1078     1034     1035 1
    1079     1035     1036 1
    1080     1036     1037 1
    1081     1037     1165 1
    1082     1039     1040 1
    1083     1039     1059 1
    1084     1039     1060 1
    1085     1040     1041 1
    1086     1040     1051 1
    1087     1040     1061 1
    1088     1041     1042 1
    1089     1041     1062 1
    1090     1041     1063 1
    1091     1042     1043 1
    1092     1042     1064 1
    1093     1042     1065 1
    1094     1043     1044 1
    1095     1043     1066 1
    1096     1043     1067 1
    1097     1044     1045 1
    1098     1044     1068 1
    1099     1044     1069 1
    1100     1045     1046 1
    1101     1045     1070 1
    1102     1045     1071 1
    1103     1046     1047 1
    1104     1046     1072 1
    1105     1046     1073 1
    1106     1047     1048 1
    1107     1047     1074 1
    1108     1047     1075 1
    1109     1048     1049 1
    1110     1048     1076 1
    1111     1048     1077 1
    1112     1049     1050 1
    1113     1049     1078 1
    1114     1049     1079 1
    1115     1050     1080 1
    1116     1050     1081 1
    1117     1050     1082 1
    1118     1051     1052 1
    1119     1051     1083 1
    1120     1051     1084 1
    1121     1052     1053 1
    1122     1052     1085 1
    1123     1052     1086 1
    1124     1053     1054 1
    1125     1053     1087 1
    1126     1053     1088 1
    1127     1054     1055 1
    1128     1054     1089 1
    1129     1054     1090 1
    1130     1055     1056 1
    1131     1055     1091 1
    1132     1055     1092 1
    1133     1056     1057 1
    1134     1056     1093 1
    1135     1056     1094 1
    1136     1057     1058 1
    1137     1057     1095 1
    1138     1057     1096 1
    1139     1058     1097 1
    1140     1058     1098 1
    1141     1058     1099 1
    1142     1100     1101 1
    1143     1100     1120 1
    1144     1100     1121 1
    1145     1101     1102 1
    1146     1101     1112 1
    1147     1101     1122 1
    1148     1102     1103 1
    1149     1102     1123 1
    1150     1102     1124 1
    1151     1103     1104 1
    1152     1103     1125 1
    1153     1103     1126 1
    1154     1104     1105 1
    1155     1104     1127 1
    1156     1104     1128 1
    1157     1105     1106 1
    1158     1105     1129 1
    1159     1105     1130 1
    1160     1106     1107 1
    1161     1106     1131 1
    1162     1106     1132 1
    1163     1107     1108 1
    1164     1107     1133 1
    1165     1107     1134 1
    1166     1108     1109 1
    1167     1108     1135 1
    1168     1108     1136 1
    1169     1109     1110 1
    1170     1109     1137 1
    1171     1109     1138 1
    1172     1110     1111 1
    1173     1110     1139 1
    1174     1110     1140 1
    1175     1111     1141 1
    1176     1111     1142 1
    1177     1111     1143 1
    1178     1112     1113 1
    1179     1112     1144 1
    1180     1112     1145 1
    1181     1113     1114 1
    1182     1113     1146 1
    1183     1113     1147 1
    1184     1114     1115 1
    1185     1114     1148 1
    1186     1114     1149 1
    1187     1115     1116 1
    1188     1115     1150 1
    1189     1115     1151 1
    1190     1116     1117 1
    1191     1116     1152 1
    1192     1116     1153 1
    1193     1117     1118 1
    1194     1117     1154 1
    1195     1117     1155 1
    1196     1118     1119 1
    1197     1118     1156 1
    1198     1118     1157 1
    1199     1119     1158 1
    1200     1119     1159 1
    1201     1119     1160 1
    1202     1161     1162 1
    1203     1161     1168 1
    1204     1161     1184 1
    1205     1161     1245 1
    1206     1162     1163 1
    1207     1162     1166 1
    1208     1163     1164 1
    1209     1163     1167 1
    1210     1164     1165 1
    1211     1165     1166 1
    1212     1166     1172 1
    1213     1167     1168 1
    1214     1167     1171 1
    1215     1168     1169 1
    1216     1169     1170 1
    1217     1169     1173 1
    1218     1170     1171 1
    1219     1170     1176 1
    1220     1174     1175 1
    1221     1174     1182 1
    1222     1175     1176 1
    1223     1175     1183 1
    1224     1176     1177 1
    1225     1177     1178 1
    1226     1177     1181 1
    1227     1178     1179 1
    1228     1179     1180 1
    1229     1180     1181 1
    1230     1181     1182 1
    1231     1182     1310 1
    1232     1184     1185 1
    1233     1184     1204 1
    1234     1184     1205 1
    1235     1185     1186 1
    1236     1185     1196 1
    1237     1185     1206 1
    1238     1186     1187 1
    1239     1186     1207 1
    1240     1186     1208 1
    1241     1187     1188 1
    1242     1187     1209 1
    1243     1187     1210 1
    1244     1188     1189 1
    1245     1188     1211 1
    1246     1188     1212 1
    1247     1189     1190 1
    1248     1189     1213 1
    1249     1189     1214 1
    1250     1190     1191 1
    1251     1190     1215 1
    1252     1190     1216 1
    1253     1191     1192 1
    1254     1191     1217 1
    1255     1191     1218 1
    1256     1192     1193 1
    1257     1192     1219 1
    1258     1192     1220 1
    1259     1193     1194 1
    1260     1193     1221 1
    1261     1193     1222 1
    1262     1194     1195 1
    1263     1194     1223 1
    1264     1194     1224 1
    1265     1195     1225 1
    1266     1195     1226 1
    1267     1195     1227 1
    1268     1196     1197 1
    1269     1196     1228 1
    1270     1196     1229 1
    1271     1197     1198 1
    1272     1197     1230 1
    1273     1197     1231 1
    1274     1198     1199 1
    1275     1198     1232 1
    1276     1198     1233 1
    1277     1199     1200 1
    1278     1199     1234 1
    1279     1199     1235 1
    1280     1200     1201 1
    1281     1200     1236 1
    1282     1200     1237 1
    1283     1201     1202 1
    1284     1201     1238 1
    1285     1201     1239 1
    1286     1202     1203 1
    1287     1202     1240 1
    1288     1202     1241 1
    1289     1203     1242 1
    1290     1203     1243 1
    1291     1203     1244 1
    1292     1245     1246 1
    1293     1245     1265 1
    1294     1245     1266 1
    1295     1246     1247 1
    1296     1246     1257 1
    1297     1246     1267 1
    1298     1247     1248 1
    1299     1247     1268 1
    1300     1247     1269 1
    1301     1248     1249 1
    1302     1248     1270 1
    1303     1248     1271 1
    1304     1249     1250 1
    1305     1249     1272 1
    1306     1249     1273 1
    1307     1250     1251 1
    1308     1250     1274 1
    1309     1250     1275 1
    1310     1251     1252 1
    1311     1251     1276 1
    1312     1251     1277 1
    1313     1252     1253 1
    1314     1252     1278 1
    1315     1252     1279 1
    1316     1253     1254 1
    1317     1253     1280 1
    1318     1253     1281 1
    1319     1254     1255 1
    1320     1254     1282 1
    1321     1254     1283 1
    1322     1255     1256 1
    1323     1255     1284 1
    1324     1255     1285 1
    1325     1256     1286 1
    1326     1256     1287 1
    1327     1256     1288 1
    1328     1257     1258 1
    1329     1257     1289 1
    1330     1257     1290 1
    1331     1258     1259 1
    1332     1258     1291 1
    1333     1258     1292 1
    1334     1259     1260 1
    1335     1259     1293 1
    1336     1259     1294 1
    1337     1260     1261 1
    1338     1260     1295 1
    1339     1260     1296 1
    1340     1261     1262 1
    1341     1261     1297 1
    1342     1261     1298 1
    1343     1262     1263 1
    1344     1262     1299 1
    1345     1262     1300 1
    1346     1263     1264 1
    1347     1263     1301 1
    1348     1263     1302 1
    1349     1264     1303 1
    1350     1264     1304 1
    1351     1264     1305 1
    1352     1306     1307 1
    1353     1306     1313 1
    1354     1306     1329 1
    1355     1306     1390 1
    1356     1307     1308 1
    1357     1307     1311 1
    1358     1308     1309 1
    1359     1308     1312 1
    1360     1309     1310 1
    1361     1310     1311 1
    1362     1311     1317 1
    1363     1312     1313 1
    1364     1312     1316 1
    1365     1313     1314 1
    1366     1314     1315 1
    1367     1314     1318 1
    1368     1315     1316 1
    1369     1315     1321 1
    1370     1319     1320 1
    1371     1319     1327 1
    1372     1320     1321 1
    1373     1320     1328 1
    1374     1321     1322 1
    1375     1322     1323 1
    1376     1322     1326 1
    1377     1323     1324 1
    1378     1324     1325 1
    1379     1325     1326 1
    1380     1326     1327 1
    1381     1327     1455 1
    1382     1329     1330 1
    1383     1329     1349 1
    1384     1329     1350 1
    1385     1330     1331 1
    1386     1330     1341 1
    1387     1330     1351 1
    1388     1331     1332 1
    1389     1331     1352 1
    1390     1331     1353 1
    1391     1332     1333 1
    1392     1332     1354 1
    1393     1332     1355 1
    1394     1333     1334 1
    1395     1333     1356 1
    1396     1333     1357 1
    1397     1334     1335 1
    1398     1334     1358 1
    1399     1334     1359 1
    1400     1335     1336 1
    1401     1335     1360 1
    1402     1335     1361 1
    1403     1336     1337 1
    1404     1336     1362 1
    1405     1336     1363 1
    1406     1337     1338 1
    1407     1337     1364 1
    1408     1337     1365 1
    1409     1338     1339 1
    1410     1338     1366 1
    1411     1338     1367 1
    1412     1339     1340 1
    1413     1339     1368 1
    1414     1339     1369 1
    1415     1340     1370 1
    1416     1340     1371 1
    1417     1340     1372 1
    1418     1341     1342 1
    1419     1341     1373 1
    1420     1341     1374 1
    1421     1342     1343 1
    1422     1342     1375 1
    1423     1342     1376 1
    1424     1343     1344 1
    1425     1343     1377 1
    1426     1343     1378 1
    1427     1344     1345 1
    1428     1344     1379 1
    1429     1344     1380 1
    1430     1345     1346 1
    1431     1345     1381 1
    1432     1345     1382 1
    1433     1346     1347 1
    1434     1346     1383 1
    1435     1346     1384 1
    1436     1347     1348 1
    1437     1347     1385 1
    1438     1347     1386 1
    1439     1348     1387 1
    1440     1348     1388 1
    1441     1348     1389 1
    1442     1390     1391 1
    1443     1390     1410 1
    1444     1390     1411 1
    1445     1391     1392 1
    1446     1391     1402 1
    1447     1391     1412 1
    1448     1392     1393 1
    1449     1392     1413 1
    1450     1392     1414 1
    1451     1393     1394 1
    1452     1393     1415 1
    1453     1393     1416 1
    1454     1394     1395 1
    1455     1394     1417 1
    1456     1394     1418 1
    1457     1395     1396 1
    1458     1395     1419 1
    1459     1395     1420 1
    1460     1396     1397 1
    1461     1396     1421 1
    1462     1396     1422 1
    1463     1397     1398 1
    1464     1397     1423 1
    1465     1397     1424 1
    1466     1398     1399 1
    1467     1398     1425 1
    1468     1398     1426 1
    1469     1399     1400 1
    1470     1399     1427 1
    1471     1399     1428 1
    1472     1400     1401 1
    1473     1400     1429 1
    1474     1400     1430 1
    1475     1401     1431 1
    1476     1401     1432 1
    1477     1401     1433 1
    1478     1402     1403 1
    1479     1402     1434 1
    1480     1402     1435 1
    1481     1403     1404 1
    1482     1403     1436 1
    1483     1403     1437 1
    1484     1404     1405 1
    1485     1404     1438 1
    1486     1404     1439 1
    1487     1405     1406 1
    1488     1405     1440 1
    1489     1405     1441 1
    1490     1406     1407 1
    1491     1406     1442 1
    1492     1406     1443 1
    1493     1407     1408 1
    1494     1407     1444 1
    1495     1407     1445 1
    1496     1408     1409 1
    1497     1408     1446 1
    1498     1408     1447 1
    1499     1409     1448 1
    1500     1409     1449 1
    1501     1409     1450 1
    1502     1451     1452 1
    1503     1451     1458 1
    1504     1451     1474 1
    1505     1451     1535 1
    1506     1452     1453 1
    1507     1452     1456 1
    1508     1453     1454 1
    1509     1453     1457 1
    1510     1454     1455 1
    1511     1455     1456 1
    1512     1456     1462 1
    1513     1457     1458 1
    1514     1457     1461 1
    1515     1458     1459 1
    1516     1459     1460 1
    1517     1459     1463 1
    1518     1460     1461 1
    1519     1460     1466 1
    1520     1464     1465 1
    1521     1464     1472 1
    1522     1465     1466 1
    1523     1465     1473 1
    1524     1466     1467 1
    1525     1467     1468 1
    1526     1467     1471 1
    1527     1468     1469 1
    1528     1469     1470 1
    1529     1470     1471 1
    1530     1471     1472 1
    1531     1472     1600 1
    1532     1474     1475 1
    1533     1474     1494 1
    1534     1474     1495 1
    1535     1475     1476 1
    1536     1475     1486 1
    1537     1475     1496 1
    1538     1476     1477 1
    1539     1476     1497 1
    1540     1476     1498 1
    1541     1477     1478 1
    1542     1477     1499 1
    1543     1477     1500 1
    1544     1478     1479 1
    1545     1478     1501 1
    1546     1478     1502 1
    1547     1479     1480 1
    1548     1479     1503 1
    1549     1479     1504 1
    1550     1480     1481 1
    1551     1480     1505 1
    1552     1480     1506 1
    1553     1481     1482 1
    1554     1481     1507 1
    1555     1481     1508 1
    1556     1482     1483 1
    1557     1482     1509 1
    1558     1482     1510 1
    1559     1483     1484 1
    1560     1483     1511 1
    1561     1483     1512 1
    1562     1484     1485 1
    1563     1484     1513 1
    1564     1484     1514 1
    1565     1485     1515 1
    1566     1485     1516 1
    1567     1485     1517 1
    1568     1486     1487 1
    1569     1486     1518 1
    1570     1486     1519 1
    1571     1487     1488 1
    1572     1487     1520 1
    1573     1487     1521 1
    1574     1488     1489 1
    1575     1488     1522 1
    1576     1488     1523 1
    1577     1489     1490 1
    1578     1489     1524 1
    1579     1489     1525 1
    1580     1490     1491 1
    1581     1490     1526 1
    1582     1490     1527 1
    1583     1491     1492 1
    1584     1491     1528 1
    1585     1491     1529 1
    1586     1492     1493 1
    1587     1492     1530 1
    1588     1492     1531 1
    1589     1493     1532 1
    1590     1493     1533 1
    1591     1493     1534 1
    1592     1535     1536 1
    1593     1535     1555 1
    1594     1535     1556 1
    1595     1536     1537 1
    1596     1536     1547 1
    1597     1536     1557 1
    1598     1537     1538 1
    1599     1537     1558 1
    1600     1537     1559 1
    1601     1538     1539 1
    1602     1538     1560 1
    1603     1538     1561 1
    1604     1539     1540 1
    1605     1539     1562 1
    1606     1539     1563 1
    1607     1540     1541 1
    1608     1540     1564 1
    1609     1540     1565 1
    1610     1541     1542 1
    1611     1541     1566 1
    1612     1541     1567 1
    1613     1542     1543 1
    1614     1542     1568 1
    1615     1542     1569 1
    1616     1543     1544 1
    1617     1543     1570 1
    1618     1543     1571 1
    1619     1544     1545 1
    1620     1544     1572 1
    1621     1544     1573 1
    1622     1545     1546 1
    1623     1545     1574 1
    1624     1545     1575 1
    1625     1546     1576 1
    1626     1546     1577 1
    1627     1546     1578 1
    1628     1547     1548 1
    1629     1547     1579 1
    1630     1547     1580 1
    1631     1548     1549 1
    1632     1548     1581 1
    1633     1548     1582 1
    1634     1549     1550 1
    1635     1549     1583 1
    1636     1549     1584 1
    1637     1550     1551 1
    1638     1550     1585 1
    1639     1550     1586 1
    1640     1551     1552 1
    1641     1551     1587 1
    1642     1551     1588 1
    1643     1552     1553 1
    1644     1552     1589 1
    1645     1552     1590 1
    1646     1553     1554 1
    1647     1553     1591 1
    1648     1553     1592 1
    1649     1554     1593 1
    1650     1554     1594 1
    1651     1554     1595 1
    1652     1596     1597 1
    1653     1596     1603 1
    1654     1596     1619 1
    1655     1596     1680 1
    1656     1597     1598 1
    1657     1597     1601 1
    1658     1598     1599 1
    1659     1598     1602 1
    1660     1599     1600 1
    1661     1600     1601 1
    1662     1601     1607 1
    1663     1602     1603 1
    1664     1602     1606 1
    1665     1603     1604 1
    1666     1604     1605 1
    1667     1604     1608 1
    1668     1605     1606 1
    1669     1605     1611 1
    1670     1609     1610 1
    1671     1609     1617 1
    1672     1610     1611 1
    1673     1610     1618 1
    1674     1611     1612 1
    1675     1612     1613 1
    1676     1612     1616 1
    1677     1613     1614 1
    1678     1614     1615 1
    1679     1615     1616 1
    1680     1616     1617 1
    1681     1617     1745 1
    1682     1619     1620 1
    1683     1619     1639 1
    1684     1619     1640 1
    1685     1620     1621 1
    1686     1620     1631 1
    1687     1620     1641 1
    1688     1621     1622 1
    1689     1621     1642 1
    1690     1621     1643 1
    1691     1622     1623 1
    1692     1622     1644 1
    1693     1622     1645 1
    1694     1623     1624 1
    1695     1623     1646 1
    1696     1623     1647 1
    1697     1624     1625 1
    1698     1624     1648 1
    1699     1624     1649 1
    1700     1625     1626 1
    1701     1625     1650 1
    1702     1625     1651 1
    1703     1626     1627 1
    1704     1626     1652 1
    1705     1626     1653 1
    1706     1627     1628 1
    1707     1627     1654 1
    1708     1627     1655 1
    1709     1628     1629 1
    1710     1628     1656 1
    1711     1628     1657 1
    1712     1629     1630 1
    1713     1629     1658 1
    1714     1629     1659 1
    1715     1630     1660 1
    1716     1630     1661 1
    1717     1630     1662 1
    1718     1631     1632 1
    1719     1631     1663 1
    1720     1631     1664 1
    1721     1632     1633 1
    1722     1632     1665 1
    1723     1632     1666 1
    1724     1633     1634 1
    1725     1633     1667 1
    1726     1633     1668 1
    1727     1634     1635 1
    1728     1634     1669 1
    1729     1634     1670 1
    1730     1635     1636 1
    1731     1635     1671 1
    1732     1635     1672 1
    1733     1636     1637 1
    1734     1636     1673 1
    1735     1636     1674 1
    1736     1637     1638 1
    1737     1637     1675 1
    1738     1637     1676 1
    1739     1638     1677 1
    1740     1638     1678 1
    1741     1638     1679 1
    1742     1680     1681 1
    1743     1680     1700 1
    1744     1680     1701 1
    1745     1681     1682 1
    1746     1681     1692 1
    1747     1681     1702 1
    1748     1682     1683 1
    1749     1682     1703 1
    1750     1682     1704 1
    1751     1683     1684 1
    1752     1683     1705 1
    1753     1683     1706 1
    1754     1684     1685 1
    1755     1684     1707 1
    1756     1684     1708 1
    1757     1685     1686 1
    1758     1685     1709 1
    1759     1685     1710 1
    1760     1686     1687 1
    1761     1686     1711 1
    1762     1686     1712 1
    1763     1687     1688 1
    1764     1687     1713 1
    1765     1687     1714 1
    1766     1688     1689 1
    1767     1688     1715 1
    1768     1688     1716 1
    1769     1689     1690 1
    1770     1689     1717 1
    1771     1689     1718 1
    1772     1690     1691 1
    1773     1690     1719 1
    1774     1690     1720 1
    1775     1691     1721 1
    1776     1691     1722 1
    1777     1691     1723 1
    1778     1692     1693 1
    1779     1692     1724 1
    1780     1692     1725 1
    1781     1693     1694 1
    1782     1693     1726 1
    1783     1693     1727 1
    1784     1694     1695 1
    1785     1694     1728 1
    1786     1694     1729 1
    1787     1695     1696 1
    1788     1695     1730 1
    1789     1695     1731 1
    1790     1696     1697 1
    1791     1696     1732 1
    1792     1696     1733 1
    1793     1697     1698 1
    1794     1697     1734 1
    1795     1697     1735 1
    1796     1698     1699 1
    1797     1698     1736 1
    1798     1698     1737 1
    1799     1699     1738 1
    1800     1699     1739 1
    1801     1699     1740 1
    1802     1741     1742 1
    1803     1741     1748 1
    1804     1741     1764 1
    1805     1741     1825 1
    1806     1742     1743 1
    1807     1742     1746 1
    1808     1743     1744 1
    1809     1743     1747 1
    1810     1744     1745 1
    1811     1745     1746 1
    1812     1746     1752 1
    1813     1747     1748 1
    1814     1747     1751 1
    1815     1748     1749 1
    1816     1749     1750 1
    1817     1749     1753 1
    1818     1750     1751 1
    1819     1750     1756 1
    1820     1754     1755 1
    1821     1754     1762 1
    1822     1755     1756 1
    1823     1755     1763 1
    1824     1756     1757 1
    1825     1757     1758 1
    1826     1757     1761 1
    1827     1758     1759 1
    1828     1759     1760 1
    1829     1760     1761 1
    1830     1761     1762 1
    1831     1762     1890 1
    1832     1764     1765 1
    1833     1764     1784 1
    1834     1764     1785 1
    1835     1765     1766 1
    1836     1765     1776 1
    1837     1765     1786 1
    1838     1766     1767 1
    1839     1766     1787 1
    1840     1766     1788 1
    1841     1767     1768 1
    1842     1767     1789 1
    1843     1767     1790 1
    1844     1768     1769 1
    1845     1768     1791 1
    1846     1768     1792 1
    1847     1769     1770 1
    1848     1769     1793 1
    1849     1769     1794 1
    1850     1770     1771 1
    1851     1770     1795 1
    1852     1770     1796 1
    1853     1771     1772 1
    1854     1771     1797 1
    1855     1771     1798 1
    1856     1772     1773 1
    1857     1772     1799 1
    1858     1772     1800 1
    1859     1773     1774 1
    1860     1773     1801 1
    1861     1773     1802 1
    1862     1774     1775 1
    1863     1774     1803 1
    1864     1774     1804 1
    1865     1775     1805 1
    1866     1775     1806 1
    1867     1775     1807 1
    1868     1776     1777 1
    1869     1776     1808 1
    1870     1776     1809 1
    1871     1777     1778 1
    1872     1777     1810 1
    1873     1777     1811 1
    1874     1778     1779 1
    1875     1778     1812 1
    1876     1778     1813 1
    1877     1779     1780 1
    1878     1779     1814 1
    1879     1779     1815 1
    1880     1780     1781 1
    1881     1780     1816 1
    1882     1780     1817 1
    1883     1781     1782 1
    1884     1781     1818 1
    1885     1781     1819 1
    1886     1782     1783 1
    1887     1782     1820 1
    1888     1782     1821 1
    1889     1783     1822 1
    1890     1783     1823 1
    1891     1783     1824 1
    1892     1825     1826 1
    1893     1825     1845 1
    1894     1825     1846 1
    1895     1826     1827 1
    1896     1826     1837 1
    1897     1826     1847 1
    1898     1827     1828 1
    1899     1827     1848 1
    1900     1827     1849 1
    1901     1828     1829 1
    1902     1828     1850 1
    1903     1828     1851 1
    1904     1829     1830 1
    1905     1829     1852 1
    1906     1829     1853 1
    1907     1830     1831 1
    1908     1830     1854 1
    1909     1830     1855 1
    1910     1831     1832 1
    1911     1831     1856 1
    1912     1831     1857 1
    1913     1832     1833 1
    1914     1832     1858 1
    1915     1832     1859 1
    1916     1833     1834 1
    1917     1833     1860 1
    1918     1833     1861 1
    1919     1834     1835 1
    1920     1834     1862 1
    1921     1834     1863 1
    1922     1835     1836 1
    1923     1835     1864 1
    1924     1835     1865 1
    1925     1836     1866 1
    1926     1836     1867 1
    1927     1836     1868 1
    1928     1837     1838 1
    1929     1837     1869 1
    1930     1837     1870 1
    1931     1838     1839 1
    1932     1838     1871 1
    1933     1838     1872 1
    1934     1839     1840 1
    1935     1839     1873 1
    1936     1839     1874 1
    1937     1840     1841 1
    1938     1840     1875 1
    1939     1840     1876 1
    1940     1841     1842 1
    1941     1841     1877 1
    1942     1841     1878 1
    1943     1842     1843 1
    1944     1842     1879 1
    1945     1842     1880 1
    1946     1843     1844 1
    1947     1843     1881 1
    1948     1843     1882 1
    1949     1844     1883 1
    1950     1844     1884 1
    1951     1844     1885 1
    1952     1886     1887 1
    1953     1886     1893 1
    1954     1886     1909 1
    1955     1886     1970 1
    1956     1887     1888 1
    1957     1887     1891 1
    1958     1888     1889 1
    1959     1888     1892 1
    1960     1889     1890 1
    1961     1890     1891 1
    1962     1891     1897 1
    1963     1892     1893 1
    1964     1892     1896 1
    1965     1893     1894 1
    1966     1894     1895 1
    1967     1894     1898 1
    1968     1895     1896 1
    1969     1895     1901 1
    1970     1899     1900 1
    1971     1899     1907 1
    1972     1900     1901 1
    1973     1900     1908 1
    1974     1901     1902 1
    1975     1902     1903 1
    1976     1902     1906 1
    1977     1903     1904 1
    1978     1904     1905 1
    1979     1905     1906 1
    1980     1906     1907 1
    1981     1907     2035 1
    1982     1909     1910 1
    1983     1909     1929 1
    1984     1909     1930 1
    1985     1910     1911 1
    1986     1910     1921 1
    1987     1910     1931 1
    1988     1911     1912 1
    1989     1911     1932 1
    1990     1911     1933 1
    1991     1912     1913 1
    1992     1912     1934 1
    1993     1912     1935 1
    1994     1913     1914 1
    1995     1913     1936 1
    1996     1913     1937 1
    1997     1914     1915 1
    1998     1914     1938 1
    1999     1914     1939 1
    2000     1915     1916 1
    2001     1915     1940 1
    2002     1915     1941 1
    2003     1916     1917 1
    2004     1916     1942 1
    2005     1916     1943 1
    2006     1917     1918 1
    2007     1917     1944 1
    2008     1917     1945 1
    2009     1918     1919 1
    2010     1918     1946 1
    2011     1918     1947 1
    2012     1919     1920 1
    2013     1919     1948 1
    2014     1919     1949 1
    2015     1920     1950 1
    2016     1920     1951 1
    2017     1920     1952 1
    2018     1921     1922 1
    2019     1921     1953 1
    2020     1921     1954 1
    2021     1922     1923 1
    2022     1922     1955 1
    2023     1922     1956 1
    2024     1923     1924 1
    2025     1923     1957 1
    2026     1923     1958 1
    2027     1924     1925 1
    2028     1924     1959 1
    2029     1924     1960 1
    2030     1925     1926 1
    2031     1925     1961 1
    2032     1925     1962 1
    2033     1926     1927 1
    2034     1926     1963 1
    2035     1926     1964 1
    2036     1927     1928 1
    2037     1927     1965 1
    2038     1927     1966 1
    2039     1928     1967 1
    2040     1928     1968 1
    2041     1928     1969 1
    2042     1970     1971 1
    2043     1970     1990 1
    2044     1970     1991 1
    2045     1971     1972 1
    2046     1971     1982 1
    2047     1971     1992 1
    2048     1972     1973 1
    2049     1972     1993 1
    2050     1972     1994 1
    2051     1973     1974 1
    2052     1973     1995 1
    2053     1973     1996 1
    2054     1974     1975 1
    2055     1974     1997 1
    2056     1974     1998 1
    2057     1975     1976 1
    2058     1975     1999 1
    2059     1975     2000 1
    2060     1976     1977 1
    2061     1976     2001 1
    2062     1976     2002 1
    2063     1977     1978 1
    2064     1977     2003 1
    2065     1977     2004 1
    2066     1978     1979 1
    2067     1978     2005 1
    2068     1978     2006 1
    2069     1979     1980 1
    2070     1979     2007 1
    2071     1979     2008 1
    2072     1980     1981 1
    2073     1980     2009 1
    2074     1980     2010 1
    2075     1981     2011 1
    2076     1981     2012 1
    2077     1981     2013 1
    2078     1982     1983 1
    2079     1982     2014 1
    2080     1982     2015 1
    2081     1983     1984 1
    2082     1983     2016 1
    2083     1983     2017 1
    2084     1984     1985 1
    2085     1984     2018 1
    2086     1984     2019 1
    2087     1985     1986 1
    2088     1985     2020 1
    2089     1985     2021 1
    2090     1986     1987 1
    2091     1986     2022 1
    2092     1986     2023 1
    2093     1987     1988 1
    2094     1987     2024 1
    2095     1987     2025 1
    2096     1988     1989 1
    2097     1988     2026 1
    2098     1988     2027 1
    2099     1989     2028 1
    2100     1989     2029 1
    2101     1989     2030 1
    2102     2031     2032 1
    2103     2031     2038 1
    2104     2031     2054 1
    2105     2031     2115 1
    2106     2032     2033 1
    2107     2032     2036 1
    2108     2033     2034 1
    2109     2033     2037 1
    2110     2034     2035 1
    2111     2035     2036 1
    2112     2036     2042 1
    2113     2037     2038 1
    2114     2037     2041 1
    2115     2038     2039 1
    2116     2039     2040 1
    2117     2039     2043 1
    2118     2040     2041 1
    2119     2040     2046 1
    2120     2044     2045 1
    2121     2044     2052 1
    2122     2045     2046 1
    2123     2045     2053 1
    2124     2046     2047 1
    2125     2047     2048 1
    2126     2047     2051 1
    2127     2048     2049 1
    2128     2049     2050 1
    2129     2050     2051 1
    2130     2051     2052 1
    2131     2052     2180 1
    2132     2054     2055 1
    2133     2054     2074 1
    2134     2054     2075 1
    2135     2055     2056 1
    2136     2055     2066 1
    2137     2055     2076 1
    2138     2056     2057 1
    2139     2056     2077 1
    2140     2056     2078 1
    2141     2057     2058 1
    2142     2057     2079 1
    2143     2057     2080 1
    2144     2058     2059 1
    2145     2058     2081 1
    2146     2058     2082 1
    2147     2059     2060 1
    2148     2059     2083 1
    2149     2059     2084 1
    2150     2060     2061 1
    2151     2060     2085 1
    2152     2060     2086 1
    2153     2061     2062 1
    2154     2061     2087 1
    2155     2061     2088 1
    2156     2062     2063 1
    2157     2062     2089 1
    2158     2062     2090 1
    2159     2063     2064 1
    2160     2063     2091 1
    2161     2063     2092 1
    2162     2064     2065 1
    2163     2064     2093 1
    2164     2064     2094 1
    2165     2065     2095 1
    2166     2065     2096 1
    2167     2065     2097 1
    2168     2066     2067 1
    2169     2066     2098 1
    2170     2066     2099 1
    2171     2067     2068 1
    2172     2067     2100 1
    2173     2067     2101 1
    2174     2068     2069 1
    2175     2068     2102 1
    2176     2068     2103 1
    2177     2069     2070 1
    2178     2069     2104 1
    2179     2069     2105 1
    2180     2070     2071 1
    2181     2070     2106 1
    2182     2070     2107 1
    2183     2071     2072 1
    2184     2071     2108 1
    2185     2071     2109 1
    2186     2072     2073 1
    2187     2072     2110 1
    2188     2072     2111 1
    2189     2073     2112 1
    2190     2073     2113 1
    2191     2073     2114 1
    2192     2115     2116 1
    2193     2115     2135 1
    2194     2115     2136 1
    2195     2116     2117 1
    2196     2116     2127 1
    2197     2116     2137 1
    2198     2117     2118 1
    2199     2117     2138 1
    2200     2117     2139 1
    2201     2118     2119 1
    2202     2118     2140 1
    2203     2118     2141 1
    2204     2119     2120 1
    2205     2119     2142 1
    2206     2119     2143 1
    2207     2120     2121 1
    2208     2120     2144 1
    2209     2120     2145 1
    2210     2121     2122 1
    2211     2121     2146 1
    2212     2121     2147 1
    2213     2122     2123 1
    2214     2122     2148 1
    2215     2122     2149 1
    2216     2123     2124 1
    2217     2123     2150 1
    2218     2123     2151 1
    2219     2124     2125 1
    2220     2124     2152 1
    2221     2124     2153 1
    2222     2125     2126 1
    2223     2125     2154 1
    2224     2125     2155 1
    2225     2126     2156 1
    2226     2126     2157 1
    2227     2126     2158 1
    2228     2127     2128 1
    2229     2127     2159 1
    2230     2127     2160 1
    2231     2128     2129 1
    2232     2128     2161 1
    2233     2128     2162 1
    2234     2129     2130 1
    2235     2129     2163 1
    2236     2129     2164 1
    2237     2130     2131 1
    2238     2130     2165 1
    2239     2130     2166 1
    2240     2131     2132 1
    2241     2131     2167 1
    2242     2131     2168 1
    2243     2132     2133 1
    2244     2132     2169 1
    2245     2132     2170 1
    2246     2133     2134 1
    2247     2133     2171 1
    2248     2133     2172 1
    2249     2134     2173 1
    2250     2134     2174 1
    2251     2134     2175 1
    2252     2176     2177 1
    2253     2176     2183 1
    2254     2176     2199 1
    2255     2176     2260 1
    2256     2177     2178 1
    2257     2177     2181 1
    2258     2178     2179 1
    2259     2178     2182 1
    2260     2179     2180 1
    2261     2180     2181 1
    2262     2181     2187 1
    2263     2182     2183 1
    2264     2182     2186 1
    2265     2183     2184 1
    2266     2184     2185 1
    2267     2184     2188 1
    2268     2185     2186 1
    2269     2185     2191 1
    2270     2189     2190 1
    2271     2189     2197 1
    2272     2190     2191 1
    2273     2190     2198 1
    2274     2191     2192 1
    2275     2192     2193 1
    2276     2192     2196 1
    2277     2193     2194 1
    2278     2194     2195 1
    2279     2195     2196 1
    2280     2196     2197 1
    2281     2197     2325 1
    2282     2199     2200 1
    2283     2199     2219 1
    2284     2199     2220 1
    2285     2200     2201 1
    2286     2200     2211 1
    2287     2200     2221 1
    2288     2201     2202 1
    2289     2201     2222 1
    2290     2201     2223 1
    2291     2202     2203 1
    2292     2202     2224 1
    2293     2202     2225 1
    2294     2203     2204 1
    2295     2203     2226 1
    2296     2203     2227 1
    2297     2204     2205 1
    2298     2204     2228 1
    2299     2204     2229 1
    2300     2205     2206 1
    2301     2205     2230 1
    2302     2205     2231 1
    2303     2206     2207 1
    2304     2206     2232 1
    2305     2206     2233 1
    2306     2207     2208 1
    2307     2207     2234 1
    2308     2207     2235 1
    2309     2208     2209 1
    2310     2208     2236 1
    2311     2208     2237 1
    2312     2209     2210 1
    2313     2209     2238 1
    2314     2209     2239 1
    2315     2210     2240 1
    2316     2210     2241 1
    2317     2210     2242 1
    2318     2211     2212 1
    2319     2211     2243 1
    2320     2211     2244 1
    2321     2212     2213 1
    2322     2212     2245 1
    2323     2212     2246 1
    2324     2213     2214 1
    2325     2213     2247 1
    2326     2213     2248 1
    2327     2214     2215 1
    2328     2214     2249 1
    2329     2214     2250 1
    2330     2215     2216 1
    2331     2215     2251 1
    2332     2215     2252 1
    2333     2216     2217 1
    2334     2216     2253 1
    2335     2216     2254 1
    2336     2217     2218 1
    2337     2217     2255 1
    2338     2217     2256 1
    2339     2218     2257 1
    2340     2218     2258 1
    2341     2218     2259 1
    2342     2260     2261 1
    2343     2260     2280 1
    2344     2260     2281 1
    2345     2261     2262 1
    2346     2261     2272 1
    2347     2261     2282 1
    2348     2262     2263 1
    2349     2262     2283 1
    2350     2262     2284 1
    2351     2263     2264 1
    2352     2263     2285 1
    2353     2263     2286 1
    2354     2264     2265 1
    2355     2264     2287 1
    2356     2264     2288 1
    2357     2265     2266 1
    2358     2265     2289 1
    2359     2265     2290 1
    2360     2266     2267 1
    2361     2266     2291 1
    2362     2266     2292 1
    2363     2267     2268 1
    2364     2267     2293 1
    2365     2267     2294 1
    2366     2268     2269 1
    2367     2268     2295 1
    2368     2268     2296 1
    2369     2269     2270 1
    2370     2269     2297 1
    2371     2269     2298 1
    2372     2270     2271 1
    2373     2270     2299 1
    2374     2270     2300 1
    2375     2271     2301 1
    2376     2271     2302 1
    2377     2271     2303 1
    2378     2272     2273 1
    2379     2272     2304 1
    2380     2272     2305 1
    2381     2273     2274 1
    2382     2273     2306 1
    2383     2273     2307 1
    2384     2274     2275 1
    2385     2274     2308 1
    2386     2274     2309 1
    2387     2275     2276 1
    2388     2275     2310 1
    2389     2275     2311 1
    2390     2276     2277 1
    2391     2276     2312 1
    2392     2276     2313 1
    2393     2277     2278 1
    2394     2277     2314 1
    2395     2277     2315 1
    2396     2278     2279 1
    2397     2278     2316 1
    2398     2278     2317 1
    2399     2279     2318 1
    2400     2279     2319 1
    2401     2279     2320 1
    2402     2321     2322 1
    2403     2321     2328 1
    2404     2321     2344 1
    2405     2321     2405 1
    2406     2322     2323 1
    2407     2322     2326 1
    2408     2323     2324 1
    2409     2323     2327 1
    2410     2324     2325 1
    2411     2325     2326 1
    2412     2326     2332 1
    2413     2327     2328 1
    2414     2327     2331 1
    2415     2328     2329 1
    2416     2329     2330 1
    2417     2329     2333 1
    2418     2330     2331 1
    2419     2330     2336 1
    2420     2334     2335 1
    2421     2334     2342 1
    2422     2335     2336 1
    2423     2335     2343 1
    2424     2336     2337 1
    2425     2337     2338 1
    2426     2337     2341 1
    2427     2338     2339 1
    2428     2339     2340 1
    2429     2340     2341 1
    2430     2341     2342 1
    2431     2342     2470 1
    2432     2344     2345 1
    2433     2344     2364 1
    2434     2344     2365 1
    2435     2345     2346 1
    2436     2345     2356 1
    2437     2345     2366 1
    2438     2346     2347 1
    2439     2346     2367 1
    2440     2346     2368 1
    2441     2347     2348 1
    2442     2347     2369 1
    2443     2347     2370 1
    2444     2348     2349 1
    2445     2348     2371 1
    2446     2348     2372 1
    2447     2349     2350 1
    2448     2349     2373 1
    2449     2349     2374 1
    2450     2350     2351 1
    2451     2350     2375 1
    2452     2350     2376 1
    2453     2351     2352 1
    2454     2351     2377 1
    2455     2351     2378 1
    2456     2352     2353 1
    2457     2352     2379 1
    2458     2352     2380 1
    2459     2353     2354 1
    2460     2353     2381 1
    2461     2353     2382 1
    2462     2354     2355 1
    2463     2354     2383 1
    2464     2354     2384 1
    2465     2355     2385 1
    2466     2355     2386 1
    2467     2355     2387 1
    2468     2356     2357 1
    2469     2356     2388 1
    2470     2356     2389 1
    2471     2357     2358 1
    2472     2357     2390 1
    2473     2357     2391 1
    2474     2358     2359 1
    2475     2358     2392 1
    2476     2358     2393 1
    2477     2359     2360 1
    2478     2359     2394 1
    2479     2359     2395 1
    2480     2360     2361 1
    2481     2360     2396 1
    2482     2360     2397 1
    2483     2361     2362 1
    2484     2361     2398 1
    2485     2361     2399 1
    2486     2362     2363 1
    2487     2362     2400 1
    2488     2362     2401 1
    2489     2363     2402 1
    2490     2363     2403 1
    2491     2363     2404 1
    2492     2405     2406 1
    2493     2405     2425 1
    2494     2405     2426 1
    2495     2406     2407 1
    2496     2406     2417 1
    2497     2406     2427 1
    2498     2407     2408 1
    2499     2407     2428 1
    2500     2407     2429 1
    2501     2408     2409 1
    2502     2408     2430 1
    2503     2408     2431 1
    2504     2409     2410 1
    2505     2409     2432 1
    2506     2409     2433 1
    2507     2410     2411 1
    2508     2410     2434 1
    2509     2410     2435 1
    2510     2411     2412 1
    2511     2411     2436 1
    2512     2411     2437 1
    2513     2412     2413 1
    2514     2412     2438 1
    2515     2412     2439 1
    2516     2413     2414 1
    2517     2413     2440 1
    2518     2413     2441 1
    2519     2414     2415 1
    2520     2414     2442 1
    2521     2414     2443 1
    2522     2415     2416 1
    2523     2415     2444 1
    2524     2415     2445 1
    2525     2416     2446 1
    2526     2416     2447 1
    2527     2416     2448 1
    2528     2417     2418 1
    2529     2417     2449 1
    2530     2417     2450 1
    2531     2418     2419 1
    2532     2418     2451 1
    2533     2418     2452 1
    2534     2419     2420 1
    2535     2419     2453 1
    2536     2419     2454 1
    2537     2420     2421 1
    2538     2420     2455 1
    2539     2420     2456 1
    2540     2421     2422 1
    2541     2421     2457 1
    2542     2421     2458 1
    2543     2422     2423 1
    2544     2422     2459 1
    2545     2422     2460 1
    2546     2423     2424 1
    2547     2423     2461 1
    2548     2423     2462 1
    2549     2424     2463 1
    2550     2424     2464 1
    2551     2424     2465 1
    2552     2466     2467 1
    2553     2466     2473 1
    2554     2466     2489 1
    2555     2466     2550 1
    2556     2467     2468 1
    2557     2467     2471 1
    2558     2468     2469 1
    2559     2468     2472 1
    2560     2469     2470 1
    2561     2470     2471 1
    2562     2471     2477 1
    2563     2472     2473 1
    2564     2472     2476 1
    2565     2473     2474 1
    2566     2474     2475 1
    2567     2474     2478 1
    2568     2475     2476 1
    2569     2475     2481 1
    2570     2479     2480 1
    2571     2479     2487 1
    2572     2480     2481 1
    2573     2480     2488 1
    2574     2481     2482 1
    2575     2482     2483 1
    2576     2482     2486 1
    2577     2483     2484 1
    2578     2484     2485 1
    2579     2485     2486 1
    2580     2486     2487 1
    2581     2487     2615 1
    2582     2489     2490 1
    2583     2489     2509 1
    2584     2489     2510 1
    2585     2490     2491 1
    2586     2490     2501 1
    2587     2490     2511 1
    2588     2491     2492 1
    2589     2491     2512 1
    2590     2491     2513 1
    2591     2492     2493 1
    2592     2492     2514 1
    2593     2492     2515 1
    2594     2493     2494 1
    2595     2493     2516 1
    2596     2493     2517 1
    2597     2494     2495 1
    2598     2494     2518 1
    2599     2494     2519 1
    2600     2495     2496 1
    2601     2495     2520 1
    2602     2495     2521 1
    2603     2496     2497 1
    2604     2496     2522 1
    2605     2496     2523 1
    2606     2497     2498 1
    2607     2497     2524 1
    2608     2497     2525 1
    2609     2498     2499 1
    2610     2498     2526 1
    2611     2498     2527 1
    2612     2499     2500 1
    2613     2499     2528 1
    2614     2499     2529 1
    2615     2500     2530 1
    2616     2500     2531 1
    2617     2500     2532 1
    2618     2501     2502 1
    2619     2501     2533 1
    2620     2501     2534 1
    2621     2502     2503 1
    2622     2502     2535 1
    2623     2502     2536 1
    2624     2503     2504 1
    2625     2503     2537 1
    2626     2503     2538 1
    2627     2504     2505 1
    2628     2504     2539 1
    2629     2504     2540 1
    2630     2505     2506 1
    2631     2505     2541 1
    2632     2505     2542 1
    2633     2506     2507 1
    2634     2506     2543 1
    2635     2506     2544 1
    2636     2507     2508 1
    2637     2507     2545 1
    2638     2507     2546 1
    2639     2508     2547 1
    2640     2508     2548 1
    2641     2508     2549 1
    2642     2550     2551 1
    2643     2550     2570 1
    2644     2550     2571 1
    2645     2551     2552 1
    2646     2551     2562 1
    2647     2551     2572 1
    2648     2552     2553 1
    2649     2552     2573 1
    2650     2552     2574 1
    2651     2553     2554 1
    2652     2553     2575 1
    2653     2553     2576 1
    2654     2554     2555 1
    2655     2554     2577 1
    2656     2554     2578 1
    2657     2555     2556 1
    2658     2555     2579 1
    2659     2555     2580 1
    2660     2556     2557 1
    2661     2556     2581 1
    2662     2556     2582 1
    2663     2557     2558 1
    2664     2557     2583 1
    2665     2557     2584 1
    2666     2558     2559 1
    2667     2558     2585 1
    2668     2558     2586 1
    2669     2559     2560 1
    2670     2559     2587 1
    2671     2559     2588 1
    2672     2560     2561 1
    2673     2560     2589 1
    2674     2560     2590 1
    2675     2561     2591 1
    2676     2561     2592 1
    2677     2561     2593 1
    2678     2562     2563 1
    2679     2562     2594 1
    2680     2562     2595 1
    2681     2563     2564 1
    2682     2563     2596 1
    2683     2563     2597 1
    2684     2564     2565 1
    2685     2564     2598 1
    2686     2564     2599 1
    2687     2565     2566 1
    2688     2565     2600 1
    2689     2565     2601 1
    2690     2566     2567 1
    2691     2566     2602 1
    2692     2566     2603 1
    2693     2567     2568 1
    2694     2567     2604 1
    2695     2567     2605 1
    2696     2568     2569 1
    2697     2568     2606 1
    2698     2568     2607 1
    2699     2569     2608 1
    2700     2569     2609 1
    2701     2569     2610 1
    2702     2611     2612 1
    2703     2611     2618 1
    2704     2611     2634 1
    2705     2611     2695 1
    2706     2612     2613 1
    2707     2612     2616 1
    2708     2613     2614 1
    2709     2613     2617 1
    2710     2614     2615 1
    2711     2615     2616 1
    2712     2616     2622 1
    2713     2617     2618 1
    2714     2617     2621 1
    2715     2618     2619 1
    2716     2619     2620 1
    2717     2619     2623 1
    2718     2620     2621 1
    2719     2620     2626 1
    2720     2624     2625 1
    2721     2624     2632 1
    2722     2625     2626 1
    2723     2625     2633 1
    2724     2626     2627 1
    2725     2627     2628 1
    2726     2627     2631 1
    2727     2628     2629 1
    2728     2629     2630 1
    2729     2630     2631 1
    2730     2631     2632 1
    2731     2632     2760 1
    2732     2634     2635 1
    2733     2634     2654 1
    2734     2634     2655 1
    2735     2635     2636 1
    2736     2635     2646 1
    2737     2635     2656 1
    2738     2636     2637 1
    2739     2636     2657 1
    2740     2636     2658 1
    2741     2637     2638 1
    2742     2637     2659 1
    2743     2637     2660 1
    2744     2638     2639 1
    2745     2638     2661 1
    2746     2638     2662 1
    2747     2639     2640 1
    2748     2639     2663 1
    2749     2639     2664 1
    2750     2640     2641 1
    2751     2640     2665 1
    2752     2640     2666 1
    2753     2641     2642 1
    2754     2641     2667 1
    2755     2641     2668 1
    2756     2642     2643 1
    2757     2642     2669 1
    2758     2642     2670 1
    2759     2643     2644 1
    2760     2643     2671 1
    2761     2643     2672 1
    2762     2644     2645 1
    2763     2644     2673 1
    2764     2644     2674 1
    2765     2645     2675 1
    2766     2645     2676 1
    2767     2645     2677 1
    2768     2646     2647 1
    2769     2646     2678 1
    2770     2646     2679 1
    2771     2647     2648 1
    2772     2647     2680 1
    2773     2647     2681 1
    2774     2648     2649 1
    2775     2648     2682 1
    2776     2648     2683 1
    2777     2649     2650 1
    2778     2649     2684 1
    2779     2649     2685 1
    2780     2650     2651 1
    2781     2650     2686 1
    2782     2650     2687 1
    2783     2651     2652 1
    2784     2651     2688 1
    2785     2651     2689 1
    2786     2652     2653 1
    2787     2652     2690 1
    2788     2652     2691 1
    2789     2653     2692 1
    2790     2653     2693 1
    2791     2653     2694 1
    2792     2695     2696 1
    2793     2695     2715 1
    2794     2695     2716 1
    2795     2696     2697 1
    2796     2696     2707 1
    2797     2696     2717 1
    2798     2697     2698 1
    2799     2697     2718 1
    2800     2697     2719 1
    2801     2698     2699 1
    2802     2698     2720 1
    2803     2698     2721 1
    2804     2699     2700 1
    2805     2699     2722 1
    2806     2699     2723 1
    2807     2700     2701 1
    2808     2700     2724 1
    2809     2700     2725 1
    2810     2701     2702 1
    2811     2701     2726 1
    2812     2701     2727 1
    2813     2702     2703 1
    2814     2702     2728 1
    2815     2702     2729 1
    2816     2703     2704 1
    2817     2703     2730 1
    2818     2703     2731 1
    2819     2704     2705 1
    2820     2704     2732 1
    2821     2704     2733 1
    2822     2705     2706 1
    2823     2705     2734 1
    2824     2705     2735 1
    2825     2706     2736 1
    2826     2706     2737 1
    2827     2706     2738 1
    2828     2707     2708 1
    2829     2707     2739 1
    2830     2707     2740 1
    2831     2708     2709 1
    2832     2708     2741 1
    2833     2708     2742 1
    2834     2709     2710 1
    2835     2709     2743 1
    2836     2709     2744 1
    2837     2710     2711 1
    2838     2710     2745 1
    2839     2710     2746 1
    2840     2711     2712 1
    2841     2711     2747 1
    2842     2711     2748 1
    2843     2712     2713 1
    2844     2712     2749 1
    2845     2712     2750 1
    2846     2713     2714 1
    2847     2713     2751 1
    2848     2713     2752 1
    2849     2714     2753 1
    2850     2714     2754 1
    2851     2714     2755 1
    2852     2756     2757 1
    2853     2756     2763 1
    2854     2756     2779 1
    2855     2756     2840 1
    2856     2757     2758 1
    2857     2757     2761 1
    2858     2758     2759 1
    2859     2758     2762 1
    2860     2759     2760 1
    2861     2760     2761 1
    2862     2761     2767 1
    2863     2762     2763 1
    2864     2762     2766 1
    2865     2763     2764 1
    2866     2764     2765 1
    2867     2764     2768 1
    2868     2765     2766 1
    2869     2765     2771 1
    2870     2769     2770 1
    2871     2769     2777 1
    2872     2770     2771 1
    2873     2770     2778 1
    2874     2771     2772 1
    2875     2772     2773 1
    2876     2772     2776 1
    2877     2773     2774 1
    2878     2774     2775 1
    2879     2775     2776 1
    2880     2776     2777 1
    2881     2777     2905 1
    2882     2779     2780 1
    2883     2779     2799 1
    2884     2779     2800 1
    2885     2780     2781 1
    2886     2780     2791 1
    2887     2780     2801 1
    2888     2781     2782 1
    2889     2781     2802 1
    2890     2781     2803 1
    2891     2782     2783 1
    2892     2782     2804 1
    2893     2782     2805 1
    2894     2783     2784 1
    2895     2783     2806 1
    2896     2783     2807 1
    2897     2784     2785 1
    2898     2784     2808 1
    2899     2784     2809 1
    2900     2785     2786 1
    2901     2785     2810 1
    2902     2785     2811 1
    2903     2786     2787 1
    2904     2786     2812 1
    2905     2786     2813 1
    2906     2787     2788 1
    2907     2787     2814 1
    2908     2787     2815 1
    2909     2788     2789 1
    2910     2788     2816 1
    2911     2788     2817 1
    2912     2789     2790 1
    2913     2789     2818 1
    2914     2789     2819 1
    2915     2790     2820 1
    2916     2790     2821 1
    2917     2790     2822 1
    2918     2791     2792 1
    2919     2791     2823 1
    2920     2791     2824 1
    2921     2792     2793 1
    2922     2792     2825 1
    2923     2792     2826 1
    2924     2793     2794 1
    2925     2793     2827 1
    2926     2793     2828 1
    2927     2794     2795 1
    2928     2794     2829 1
    2929     2794     2830 1
    2930     2795     2796 1
    2931     2795     2831 1
    2932     2795     2832 1
    2933     2796     2797 1
    2934     2796     2833 1
    2935     2796     2834 1
    2936     2797     2798 1
    2937     2797     2835 1
    2938     2797     2836 1
    2939     2798     2837 1
    2940     2798     2838 1
    2941     2798     2839 1
    2942     2840     2841 1
    2943     2840     2860 1
    2944     2840     2861 1
    2945     2841     2842 1
    2946     2841     2852 1
    2947     2841     2862 1
    2948     2842     2843 1
    2949     2842     2863 1
    2950     2842     2864 1
    2951     2843     2844 1
    2952     2843     2865 1
    2953     2843     2866 1
    2954     2844     2845 1
    2955     2844     2867 1
    2956     2844     2868 1
    2957     2845     2846 1
    2958     2845     2869 1
    2959     2845     2870 1
    2960     2846     2847 1
    2961     2846     2871 1
    2962     2846     2872 1
    2963     2847     2848 1
    2964     2847     2873 1
    2965     2847     2874 1
    2966     2848     2849 1
    2967     2848     2875 1
    2968     2848     2876 1
    2969     2849     2850 1
    2970     2849     2877 1
    2971     2849     2878 1
    2972     2850     2851 1
    2973     2850     2879 1
    2974     2850     2880 1
    2975     2851     2881 1
    2976     2851     2882 1
    2977     2851     2883 1
    2978     2852     2853 1
    2979     2852     2884 1
    2980     2852     2885 1
    2981     2853     2854 1
    2982     2853     2886 1
    2983     2853     2887 1
    2984     2854     2855 1
    2985     2854     2888 1
    2986     2854     2889 1
    2987     2855     2856 1
    2988     2855     2890 1
    2989     2855     2891 1
    2990     2856     2857 1
    2991     2856     2892 1
    2992     2856     2893 1
    2993     2857     2858 1
    2994     2857     2894 1
    2995     2857     2895 1
    2996     2858     2859 1
    2997     2858     2896 1
    2998     2858     2897 1
    2999     2859     2898 1
    3000     2859     2899 1
    3001     2859     2900 1
    3002     2901     2902 1
    3003     2901     2908 1
    3004     2901     2924 1
    3005     2901     2985 1
    3006     2902     2903 1
    3007     2902     2906 1
    3008     2903     2904 1
    3009     2903     2907 1
    3010     2904     2905 1
    3011     2905     2906 1
    3012     2906     2912 1
    3013     2907     2908 1
    3014     2907     2911 1
    3015     2908     2909 1
    3016     2909     2910 1
    3017     2909     2913 1
    3018     2910     2911 1
    3019     2910     2916 1
    3020     2914     2915 1
    3021     2914     2922 1
    3022     2915     2916 1
    3023     2915     2923 1
    3024     2916     2917 1
    3025     2917     2918 1
    3026     2917     2921 1
    3027     2918     2919 1
    3028     2919     2920 1
    3029     2920     2921 1
    3030     2921     2922 1
    3031     2922     3050 1
    3032     2924     2925 1
    3033     2924     2944 1
    3034     2924     2945 1
    3035     2925     2926 1
    3036     2925     2936 1
    3037     2925     2946 1
    3038     2926     2927 1
    3039     2926     2947 1
    3040     2926     2948 1
    3041     2927     2928 1
    3042     2927     2949 1
    3043     2927     2950 1
    3044     2928     2929 1
    3045     2928     2951 1
    3046     2928     2952 1
    3047     2929     2930 1
    3048     2929     2953 1
    3049     2929     2954 1
    3050     2930     2931 1
    3051     2930     2955 1
    3052     2930     2956 1
    3053     2931     2932 1
    3054     2931     2957 1
    3055     2931     2958 1
    3056     2932     2933 1
    3057     2932     2959 1
    3058     2932     2960 1
    3059     2933     2934 1
    3060     2933     2961 1
    3061     2933     2962 1
    3062     2934     2935 1
    3063     2934     2963 1
    3064     2934     2964 1
    3065     2935     2965 1
    3066     2935     2966 1
    3067     2935     2967 1
    3068     2936     2937 1
    3069     2936     2968 1
    3070     2936     2969 1
    3071     2937     2938 1
    3072     2937     2970 1
    3073     2937     2971 1
    3074     2938     2939 1
    3075     2938     2972 1
    3076     2938     2973 1
    3077     2939     2940 1
    3078     2939     2974 1
    3079     2939     2975 1
    3080     2940     2941 1
    3081     2940     2976 1
    3082     2940     2977 1
    3083     2941     2942 1
    3084     2941     2978 1
    3085     2941     2979 1
    3086     2942     2943 1
    3087     2942     2980 1
    3088     2942     2981 1
    3089     2943     2982 1
    3090     2943     2983 1
    3091     2943     2984 1
    3092     2985     2986 1
    3093     2985     3005 1
    3094     2985     3006 1
    3095     2986     2987 1
    3096     2986     2997 1
    3097     2986     3007 1
    3098     2987     2988 1
    3099     2987     3008 1
    3100     2987     3009 1
    3101     2988     2989 1
    3102     2988     3010 1
    3103     2988     3011 1
    3104     2989     2990 1
    3105     2989     3012 1
    3106     2989     3013 1
    3107     2990     2991 1
    3108     2990     3014 1
    3109     2990     3015 1
    3110     2991     2992 1
    3111     2991     3016 1
    3112     2991     3017 1
    3113     2992     2993 1
    3114     2992     3018 1
    3115     2992     3019 1
    3116     2993     2994 1
    3117     2993     3020 1
    3118     2993     3021 1
    3119     2994     2995 1
    3120     2994     3022 1
    3121     2994     3023 1
    3122     2995     2996 1
    3123     2995     3024 1
    3124     2995     3025 1
    3125     2996     3026 1
    3126     2996     3027 1
    3127     2996     3028 1
    3128     2997     2998 1
    3129     2997     3029 1
    3130     2997     3030 1
    3131     2998     2999 1
    3132     2998     3031 1
    3133     2998     3032 1
    3134     2999     3000 1
    3135     2999     3033 1
    3136     2999     3034 1
    3137     3000     3001 1
    3138     3000     3035 1
    3139     3000     3036 1
    3140     3001     3002 1
    3141     3001     3037 1
    3142     3001     3038 1
    3143     3002     3003 1
    3144     3002     3039 1
    3145     3002     3040 1
    3146     3003     3004 1
    3147     3003     3041 1
    3148     3003     3042 1
    3149     3004     3043 1
    3150     3004     3044 1
    3151     3004     3045 1
    3152     3046     3047 1
    3153     3046     3053 1
    3154     3046     3069 1
    3155     3046     3130 1
    3156     3047     3048 1
    3157     3047     3051 1
    3158     3048     3049 1
    3159     3048     3052 1
    3160     3049     3050 1
    3161     3050     3051 1
    3162     3051     3057 1
    3163     3052     3053 1
    3164     3052     3056 1
    3165     3053     3054 1
    3166     3054     3055 1
    3167     3054     3058 1
    3168     3055     3056 1
    3169     3055     3061 1
    3170     3059     3060 1
    3171     3059     3067 1
    3172     3060     3061 1
    3173     3060     3068 1
    3174     3061     3062 1
    3175     3062     3063 1
    3176     3062     3066 1
    3177     3063     3064 1
    3178     3064     3065 1
    3179     3065     3066 1
    3180     3066     3067 1
    3181     3067     3195 1
    3182     3069     3070 1
    3183     3069     3089 1
    3184     3069     3090 1
    3185     3070     3071 1
    3186     3070     3081 1
    3187     3070     3091 1
    3188     3071     3072 1
    3189     3071     3092 1
    3190     3071     3093 1
    3191     3072     3073 1
    3192     3072     3094 1
    3193     3072     3095 1
    3194     3073     3074 1
    3195     3073     3096 1
    3196     3073     3097 1
    3197     3074     3075 1
    3198     3074     3098 1
    3199     3074     3099 1
    3200     3075     3076 1
    3201     3075     3100 1
    3202     3075     3101 1
    3203     3076     3077 1
    3204     3076     3102 1
    3205     3076     3103 1
    3206     3077     3078 1
    3207     3077     3104 1
    3208     3077     3105 1
    3209     3078     3079 1
    3210     3078     3106 1
    3211     3078     3107 1
    3212     3079     3080 1
    3213     3079     3108 1
    3214     3079     3109 1
    3215     3080     3110 1
    3216     3080     3111 1
    3217     3080     3112 1
    3218     3081     3082 1
    3219     3081     3113 1
    3220     3081     3114 1
    3221     3082     3083 1
    3222     3082     3115 1
    3223     3082     3116 1
    3224     3083     3084 1
    3225     3083     3117 1
    3226     3083     3118 1
    3227     3084     3085 1
    3228     3084     3119 1
    3229     3084     3120 1
    3230     3085     3086 1
    3231     3085     3121 1
    3232     3085     3122 1
    3233     3086     3087 1
    3234     3086     3123 1
    3235     3086     3124 1
    3236     3087     3088 1
    3237     3087     3125 1
    3238     3087     3126 1
    3239     3088     3127 1
    3240     3088     3128 1
    3241     3088     3129 1
    3242     3130     3131 1
    3243     3130     3150 1
    3244     3130     3151 1
    3245     3131     3132 1
    3246     3131     3142 1
    3247     3131     3152 1
    3248     3132     3133 1
    3249     3132     3153 1
    3250     3132     3154 1
    3251     3133     3134 1
    3252     3133     3155 1
    3253     3133     3156 1
    3254     3134     3135 1
    3255     3134     3157 1
    3256     3134     3158 1
    3257     3135     3136 1
    3258     3135     3159 1
    3259     3135     3160 1
    3260     3136     3137 1
    3261     3136     3161 1
    3262     3136     3162 1
    3263     3137     3138 1
    3264     3137     3163 1
    3265     3137     3164 1
    3266     3138     3139 1
    3267     3138     3165 1
    3268     3138     3166 1
    3269     3139     3140 1
    3270     3139     3167 1
    3271     3139     3168 1
    3272     3140     3141 1
    3273     3140     3169 1
    3274     3140     3170 1
    3275     3141     3171 1
    3276     3141     3172 1
    3277     3141     3173 1
    3278     3142     3143 1
    3279     3142     3174 1
    3280     3142     3175 1
    3281     3143     3144 1
    3282     3143     3176 1
    3283     3143     3177 1
    3284     3144     3145 1
    3285     3144     3178 1
    3286     3144     3179 1
    3287     3145     3146 1
    3288     3145     3180 1
    3289     3145     3181 1
    3290     3146     3147 1
    3291     3146     3182 1
    3292     3146     3183 1
    3293     3147     3148 1
    3294     3147     3184 1
    3295     3147     3185 1
    3296     3148     3149 1
    3297     3148     3186 1
    3298     3148     3187 1
    3299     3149     3188 1
    3300     3149     3189 1
    3301     3149     3190 1
    3302     3191     3192 1
    3303     3191     3198 1
    3304     3191     3214 1
    3305     3191     3275 1
    3306     3192     3193 1
    3307     3192     3196 1
    3308     3193     3194 1
    3309     3193     3197 1
    3310     3194     3195 1
    3311     3195     3196 1
    3312     3196     3202 1
    3313     3197     3198 1
    3314     3197     3201 1
    3315     3198     3199 1
    3316     3199     3200 1
    3317     3199     3203 1
    3318     3200     3201 1
    3319     3200     3206 1
    3320     3204     3205 1
    3321     3204     3212 1
    3322     3205     3206 1
    3323     3205     3213 1
    3324     3206     3207 1
    3325     3207     3208 1
    3326     3207     3211 1
    3327     3208     3209 1
    3328     3209     3210 1
    3329     3210     3211 1
    3330     3211     3212 1
    3331     3212     3340 1
    3332     3214     3215 1
    3333     3214     3234 1
    3334     3214     3235 1
    3335     3215     3216 1
    3336     3215     3226 1
    3337     3215     3236 1
    3338     3216     3217 1
    3339     3216     3237 1
    3340     3216     3238 1
    3341     3217     3218 1
    3342     3217     3239 1
    3343     3217     3240 1
    3344     3218     3219 1
    3345     3218     3241 1
    3346     3218     3242 1
    3347     3219     3220 1
    3348     3219     3243 1
    3349     3219     3244 1
    3350     3220     3221 1
    3351     3220     3245 1
    3352     3220     3246 1
    3353     3221     3222 1
    3354     3221     3247 1
    3355     3221     3248 1
    3356     3222     3223 1
    3357     3222     3249 1
    3358     3222     3250 1
    3359     3223     3224 1
    3360     3223     3251 1
    3361     3223     3252 1
    3362     3224     3225 1
    3363     3224     3253 1
    3364     3224     3254 1
    3365     3225     3255 1
    3366     3225     3256 1
    3367     3225     3257 1
    3368     3226     3227 1
    3369     3226     3258 1
    3370     3226     3259 1
    3371     3227     3228 1
    3372     3227     3260 1
    3373     3227     3261 1
    3374     3228     3229 1
    3375     3228     3262 1
    3376     3228     3263 1
    3377     3229     3230 1
    3378     3229     3264 1
    3379     3229     3265 1
    3380     3230     3231 1
    3381     3230     3266 1
    3382     3230     3267 1
    3383     3231     3232 1
    3384     3231     3268 1
    3385     3231     3269 1
    3386     3232     3233 1
    3387     3232     3270 1
    3388     3232     3271 1
    3389     3233     3272 1
    3390     3233     3273 1
    3391     3233     3274 1
    3392     3275     3276 1
    3393     3275     3295 1
    3394     3275     3296 1
    3395     3276     3277 1
    3396     3276     3287 1
    3397     3276     3297 1
    3398     3277     3278 1
    3399     3277     3298 1
    3400     3277     3299 1
    3401     3278     3279 1
    3402     3278     3300 1
    3403     3278     3301 1
    3404     3279     3280 1
    3405     3279     3302 1
    3406     3279     3303 1
    3407     3280     3281 1
    3408     3280     3304 1
    3409     3280     3305 1
    3410     3281     3282 1
    3411     3281     3306 1
    3412     3281     3307 1
    3413     3282     3283 1
    3414     3282     3308 1
    3415     3282     3309 1
    3416     3283     3284 1
    3417     3283     3310 1
    3418     3283     3311 1
    3419     3284     3285 1
    3420     3284     3312 1
    3421     3284     3313 1
    3422     3285     3286 1
    3423     3285     3314 1
    3424     3285     3315 1
    3425     3286     3316 1
    3426     3286     3317 1
    3427     3286     3318 1
    3428     3287     3288 1
    3429     3287     3319 1
    3430     3287     3320 1
    3431     3288     3289 1
    3432     3288     3321 1
    3433     3288     3322 1
    3434     3289     3290 1
    3435     3289     3323 1
    3436     3289     3324 1
    3437     3290     3291 1
    3438     3290     3325 1
    3439     3290     3326 1
    3440     3291     3292 1
    3441     3291     3327 1
    3442     3291     3328 1
    3443     3292     3293 1
    3444     3292     3329 1
    3445     3292     3330 1
    3446     3293     3294 1
    3447     3293     3331 1
    3448     3293     3332 1
    3449     3294     3333 1
    3450     3294     3334 1
    3451     3294     3335 1
    3452     3336     3337 1
    3453     3336     3343 1
    3454     3336     3359 1
    3455     3336     3420 1
    3456     3337     3338 1
    3457     3337     3341 1
    3458     3338     3339 1
    3459     3338     3342 1
    3460     3339     3340 1
    3461     3340     3341 1
    3462     3341     3347 1
    3463     3342     3343 1
    3464     3342     3346 1
    3465     3343     3344 1
    3466     3344     3345 1
    3467     3344     3348 1
    3468     3345     3346 1
    3469     3345     3351 1
    3470     3349     3350 1
    3471     3349     3357 1
    3472     3350     3351 1
    3473     3350     3358 1
    3474     3351     3352 1
    3475     3352     3353 1
    3476     3352     3356 1
    3477     3353     3354 1
    3478     3354     3355 1
    3479     3355     3356 1
    3480     3356     3357 1
    3481     3357     3485 1
    3482     3359     3360 1
    3483     3359     3379 1
    3484     3359     3380 1
    3485     3360     3361 1
    3486     3360     3371 1
    3487     3360     3381 1
    3488     3361     3362 1
    3489     3361     3382 1
    3490     3361     3383 1
    3491     3362     3363 1
    3492     3362     3384 1
    3493     3362     3385 1
    3494     3363     3364 1
    3495     3363     3386 1
    3496     3363     3387 1
    3497     3364     3365 1
    3498     3364     3388 1
    3499     3364     3389 1
    3500     3365     3366 1
    3501     3365     3390 1
    3502     3365     3391 1
    3503     3366     3367 1
    3504     3366     3392 1
    3505     3366     3393 1
    3506     3367     3368 1
    3507     3367     3394 1
    3508     3367     3395 1
    3509     3368     3369 1
    3510     3368     3396 1
    3511     3368     3397 1
    3512     3369     3370 1
    3513     3369     3398 1
    3514     3369     3399 1
    3515     3370     3400 1
    3516     3370     3401 1
    3517     3370     3402 1
    3518     3371     3372 1
    3519     3371     3403 1
    3520     3371     3404 1
    3521     3372     3373 1
    3522     3372     3405 1
    3523     3372     3406 1
    3524     3373     3374 1
    3525     3373     3407 1
    3526     3373     3408 1
    3527     3374     3375 1
    3528     3374     3409 1
    3529     3374     3410 1
    3530     3375     3376 1
    3531     3375     3411 1
    3532     3375     3412 1
    3533     3376     3377 1
    3534     3376     3413 1
    3535     3376     3414 1
    3536     3377     3378 1
    3537     3377     3415 1
    3538     3377     3416 1
    3539     3378     3417 1
    3540     3378     3418 1
    3541     3378     3419 1
    3542     3420     3421 1
    3543     3420     3440 1
    3544     3420     3441 1
    3545     3421     3422 1
    3546     3421     3432 1
    3547     3421     3442 1
    3548     3422     3423 1
    3549     3422     3443 1
    3550     3422     3444 1
    3551     3423     3424 1
    3552     3423     3445 1
    3553     3423     3446 1
    3554     3424     3425 1
    3555     3424     3447 1
    3556     3424     3448 1
    3557     3425     3426 1
    3558     3425     3449 1
    3559     3425     3450 1
    3560     3426     3427 1
    3561     3426     3451 1
    3562     3426     3452 1
    3563     3427     3428 1
    3564     3427     3453 1
    3565     3427     3454 1
    3566     3428     3429 1
    3567     3428     3455 1
    3568     3428     3456 1
    3569     3429     3430 1
    3570     3429     3457 1
    3571     3429     3458 1
    3572     3430     3431 1
    3573     3430     3459 1
    3574     3430     3460 1
    3575     3431     3461 1
    3576     3431     3462 1
    3577     3431     3463 1
    3578     3432     3433 1
    3579     3432     3464 1
    3580     3432     3465 1
    3581     3433     3434 1
    3582     3433     3466 1
    3583     3433     3467 1
    3584     3434     3435 1
    3585     3434     3468 1
    3586     3434     3469 1
    3587     3435     3436 1
    3588     3435     3470 1
    3589     3435     3471 1
    3590     3436     3437 1
    3591     3436     3472 1
    3592     3436     3473 1
    3593     3437     3438 1
    3594     3437     3474 1
    3595     3437     3475 1
    3596     3438     3439 1
    3597     3438     3476 1
    3598     3438     3477 1
    3599     3439     3478 1
    3600     3439     3479 1
    3601     3439     3480 1
    3602     3481     3482 1
    3603     3481     3488 1
    3604     3481     3504 1
    3605     3481     3565 1
    3606     3482     3483 1
    3607     3482     3486 1
    3608     3483     3484 1
    3609     3483     3487 1
    3610     3484     3485 1
    3611     3485     3486 1
    3612     3486     3492 1
    3613     3487     3488 1
    3614     3487     3491 1
    3615     3488     3489 1
    3616     3489     3490 1
    3617     3489     3493 1
    3618     3490     3491 1
    3619     3490     3496 1
    3620     3494     3495 1
    3621     3494     3502 1
    3622     3495     3496 1
    3623     3495     3503 1
    3624     3496     3497 1
    3625     3497     3498 1
    3626     3497     3501 1
    3627     3498     3499 1
    3628     3499     3500 1
    3629     3500     3501 1
    3630     3501     3502 1
    3631     3502     3630 1
    3632     3504     3505 1
    3633     3504     3524 1
    3634     3504     3525 1
    3635     3505     3506 1
    3636     3505     3516 1
    3637     3505     3526 1
    3638     3506     3507 1
    3639     3506     3527 1
    3640     3506     3528 1
    3641     3507     3508 1
    3642     3507     3529 1
    3643     3507     3530 1
    3644     3508     3509 1
    3645     3508     3531 1
    3646     3508     3532 1
    3647     3509     3510 1
    3648     3509     3533 1
    3649     3509     3534 1
    3650     3510     3511 1
    3651     3510     3535 1
    3652     3510     3536 1
    3653     3511     3512 1
    3654     3511     3537 1
    3655     3511     3538 1
    3656     3512     3513 1
    3657     3512     3539 1
    3658     3512     3540 1
    3659     3513     3514 1
    3660     3513     3541 1
    3661     3513     3542 1
    3662     3514     3515 1
    3663     3514     3543 1
    3664     3514     3544 1
    3665     3515     3545 1
    3666     3515     3546 1
    3667     3515     3547 1
    3668     3516     3517 1
    3669     3516     3548 1
    3670     3516     3549 1
    3671     3517     3518 1
    3672     3517     3550 1
    3673     3517     3551 1
    3674     3518     3519 1
    3675     3518     3552 1
    3676     3518     3553 1
    3677     3519     3520 1
    3678     3519     3554 1
    3679     3519     3555 1
    3680     3520     3521 1
    3681     3520     3556 1
    3682     3520     3557 1
    3683     3521     3522 1
    3684     3521     3558 1
    3685     3521     3559 1
    3686     3522     3523 1
    3687     3522     3560 1
    3688     3522     3561 1
    3689     3523     3562 1
    3690     3523     3563 1
    3691     3523     3564 1
    3692     3565     3566 1
    3693     3565     3585 1
    3694     3565     3586 1
    3695     3566     3567 1
    3696     3566     3577 1
    3697     3566     3587 1
    3698     3567     3568 1
    3699     3567     3588 1
    3700     3567     3589 1
    3701     3568     3569 1
    3702     3568     3590 1
    3703     3568     3591 1
    3704     3569     3570 1
    3705     3569     3592 1
    3706     3569     3593 1
    3707     3570     3571 1
    3708     3570     3594 1
    3709     3570     3595 1
    3710     3571     3572 1
    3711     3571     3596 1
    3712     3571     3597 1
    3713     3572     3573 1
    3714     3572     3598 1
    3715     3572     3599 1
    3716     3573     3574 1
    3717     3573     3600 1
    3718     3573     3601 1
    3719     3574     3575 1
    3720     3574     3602 1
    3721     3574     3603 1
    3722     3575     3576 1
    3723     3575     3604 1
    3724     3575     3605 1
    3725     3576     3606 1
    3726     3576     3607 1
    3727     3576     3608 1
    3728     3577     3578 1
    3729     3577     3609 1
    3730     3577     3610 1
    3731     3578     3579 1
    3732     3578     3611 1
    3733     3578     3612 1
    3734     3579     3580 1
    3735     3579     3613 1
    3736     3579     3614 1
    3737     3580     3581 1
    3738     3580     3615 1
    3739     3580     3616 1
    3740     3581     3582 1
    3741     3581     3617 1
    3742     3581     3618 1
    3743     3582     3583 1
    3744     3582     3619 1
    3745     3582     3620 1
    3746     3583     3584 1
    3747     3583     3621 1
    3748     3583     3622 1
    3749     3584     3623 1
    3750     3584     3624 1
    3751     3584     3625 1
    3752     3626     3627 1
    3753     3626     3633 1
    3754     3626     3649 1
    3755     3626     3710 1
    3756     3627     3628 1
    3757     3627     3631 1
    3758     3628     3629 1
    3759     3628     3632 1
    3760     3629     3630 1
    3761     3630     3631 1
    3762     3631     3637 1
    3763     3632     3633 1
    3764     3632     3636 1
    3765     3633     3634 1
    3766     3634     3635 1
    3767     3634     3638 1
    3768     3635     3636 1
    3769     3635     3641 1
    3770     3639     3640 1
    3771     3639     3647 1
    3772     3640     3641 1
    3773     3640     3648 1
    3774     3641     3642 1
    3775     3642     3643 1
    3776     3642     3646 1
    3777     3643     3644 1
    3778     3644     3645 1
    3779     3645     3646 1
    3780     3646     3647 1
    3781     3647     3775 1
    3782     3649     3650 1
    3783     3649     3669 1
    3784     3649     3670 1
    3785     3650     3651 1
    3786     3650     3661 1
    3787     3650     3671 1
    3788     3651     3652 1
    3789     3651     3672 1
    3790     3651     3673 1
    3791     3652     3653 1
    3792     3652     3674 1
    3793     3652     3675 1
    3794     3653     3654 1
    3795     3653     3676 1
    3796     3653     3677 1
    3797     3654     3655 1
    3798     3654     3678 1
    3799     3654     3679 1
    3800     3655     3656 1
    3801     3655     3680 1
    3802     3655     3681 1
    3803     3656     3657 1
    3804     3656     3682 1
    3805     3656     3683 1
    3806     3657     3658 1
    3807     3657     3684 1
    3808     3657     3685 1
    3809     3658     3659 1
    3810     3658     3686 1
    3811     3658     3687 1
    3812     3659     3660 1
    3813     3659     3688 1
    3814     3659     3689 1
    3815     3660     3690 1
    3816     3660     3691 1
    3817     3660     3692 1
    3818     3661     3662 1
    3819     3661     3693 1
    3820     3661     3694 1
    3821     3662     3663 1
    3822     3662     3695 1
    3823     3662     3696 1
    3824     3663     3664 1
    3825     3663     3697 1
    3826     3663     3698 1
    3827     3664     3665 1
    3828     3664     3699 1
    3829     3664     3700 1
    3830     3665     3666 1
    3831     3665     3701 1
    3832     3665     3702 1
    3833     3666     3667 1
    3834     3666     3703 1
    3835     3666     3704 1
    3836     3667     3668 1
    3837     3667     3705 1
    3838     3667     3706 1
    3839     3668     3707 1
    3840     3668     3708 1
    3841     3668     3709 1
    3842     3710     3711 1
    3843     3710     3730 1
    3844     3710     3731 1
    3845     3711     3712 1
    3846     3711     3722 1
    3847     3711     3732 1
    3848     3712     3713 1
    3849     3712     3733 1
    3850     3712     3734 1
    3851     3713     3714 1
    3852     3713     3735 1
    3853     3713     3736 1
    3854     3714     3715 1
    3855     3714     3737 1
    3856     3714     3738 1
    3857     3715     3716 1
    3858     3715     3739 1
    3859     3715     3740 1
    3860     3716     3717 1
    3861     3716     3741 1
    3862     3716     3742 1
    3863     3717     3718 1
    3864     3717     3743 1
    3865     3717     3744 1
    3866     3718     3719 1
    3867     3718     3745 1
    3868     3718     3746 1
    3869     3719     3720 1
    3870     3719     3747 1
    3871     3719     3748 1
    3872     3720     3721 1
    3873     3720     3749 1
    3874     3720     3750 1
    3875     3721     3751 1
    3876     3721     3752 1
    3877     3721     3753 1
    3878     3722     3723 1
    3879     3722     3754 1
    3880     3722     3755 1
    3881     3723     3724 1
    3882     3723     3756 1
    3883     3723     3757 1
    3884     3724     3725 1
    3885     3724     3758 1
    3886     3724     3759 1
    3887     3725     3726 1
    3888     3725     3760 1
    3889     3725     3761 1
    3890     3726     3727 1
    3891     3726     3762 1
    3892     3726     3763 1
    3893     3727     3728 1
    3894     3727     3764 1
    3895     3727     3765 1
    3896     3728     3729 1
    3897     3728     3766 1
    3898     3728     3767 1
    3899     3729     3768 1
    3900     3729     3769 1
    3901     3729     3770 1
    3902     3771     3772 1
    3903     3771     3778 1
    3904     3771     3794 1
    3905     3771     3855 1
    3906     3772     3773 1
    3907     3772     3776 1
    3908     3773     3774 1
    3909     3773     3777 1
    3910     3774     3775 1
    3911     3775     3776 1
    3912     3776     3782 1
    3913     3777     3778 1
    3914     3777     3781 1
    3915     3778     3779 1
    3916     3779     3780 1
    3917     3779     3783 1
    3918     3780     3781 1
    3919     3780     3786 1
    3920     3784     3785 1
    3921     3784     3792 1
    3922     3785     3786 1
    3923     3785     3793 1
    3924     3786     3787 1
    3925     3787     3788 1
    3926     3787     3791 1
    3927     3788     3789 1
    3928     3789     3790 1
    3929     3790     3791 1
    3930     3791     3792 1
    3931     3792     3920 1
    3932     3794     3795 1
    3933     3794     3814 1
    3934     3794     3815 1
    3935     3795     3796 1
    3936     3795     3806 1
    3937     3795     3816 1
    3938     3796     3797 1
    3939     3796     3817 1
    3940     3796     3818 1
    3941     3797     3798 1
    3942     3797     3819 1
    3943     3797     3820 1
    3944     3798     3799 1
    3945     3798     3821 1
    3946     3798     3822 1
    3947     3799     3800 1
    3948     3799     3823 1
    3949     3799     3824 1
    3950     3800     3801 1
    3951     3800     3825 1
    3952     3800     3826 1
    3953     3801     3802 1
    3954     3801     3827 1
    3955     3801     3828 1
    3956     3802     3803 1
    3957     3802     3829 1
    3958     3802     3830 1
    3959     3803     3804 1
    3960     3803     3831 1
    3961     3803     3832 1
    3962     3804     3805 1
    3963     3804     3833 1
    3964     3804     3834 1
    3965     3805     3835 1
    3966     3805     3836 1
    3967     3805     3837 1
    3968     3806     3807 1
    3969     3806     3838 1
    3970     3806     3839 1
    3971     3807     3808 1
    3972     3807     3840 1
    3973     3807     3841 1
    3974     3808     3809 1
    3975     3808     3842 1
    3976     3808     3843 1
    3977     3809     3810 1
    3978     3809     3844 1
    3979     3809     3845 1
    3980     3810     3811 1
    3981     3810     3846 1
    3982     3810     3847 1
    3983     3811     3812 1
    3984     3811     3848 1
    3985     3811     3849 1
    3986     3812     3813 1
    3987     3812     3850 1
    3988     3812     3851 1
    3989     3813     3852 1
    3990     3813     3853 1
    3991     3813     3854 1
    3992     3855     3856 1
    3993     3855     3875 1
    3994     3855     3876 1
    3995     3856     3857 1
    3996     3856     3867 1
    3997     3856     3877 1
    3998     3857     3858 1
    3999     3857     3878 1
    4000     3857     3879 1
    4001     3858     3859 1
    4002     3858     3880 1
    4003     3858     3881 1
    4004     3859     3860 1
    4005     3859     3882 1
    4006     3859     3883 1
    4007     3860     3861 1
    4008     3860     3884 1
    4009     3860     3885 1
    4010     3861     3862 1
    4011     3861     3886 1
    4012     3861     3887 1
    4013     3862     3863 1
    4014     3862     3888 1
    4015     3862     3889 1
    4016     3863     3864 1
    4017     3863     3890 1
    4018     3863     3891 1
    4019     3864     3865 1
    4020     3864     3892 1
    4021     3864     3893 1
    4022     3865     3866 1
    4023     3865     3894 1
    4024     3865     3895 1
    4025     3866     3896 1
    4026     3866     3897 1
    4027     3866     3898 1
    4028     3867     3868 1
    4029     3867     3899 1
    4030     3867     3900 1
    4031     3868     3869 1
    4032     3868     3901 1
    4033     3868     3902 1
    4034     3869     3870 1
    4035     3869     3903 1
    4036     3869     3904 1
    4037     3870     3871 1
    4038     3870     3905 1
    4039     3870     3906 1
    4040     3871     3872 1
    4041     3871     3907 1
    4042     3871     3908 1
    4043     3872     3873 1
    4044     3872     3909 1
    4045     3872     3910 1
    4046     3873     3874 1
    4047     3873     3911 1
    4048     3873     3912 1
    4049     3874     3913 1
    4050     3874     3914 1
    4051     3874     3915 1
    4052     3916     3917 1
    4053     3916     3923 1
    4054     3916     3939 1
    4055     3916     4000 1
    4056     3917     3918 1
    4057     3917     3921 1
    4058     3918     3919 1
    4059     3918     3922 1
    4060     3919     3920 1
    4061     3920     3921 1
    4062     3921     3927 1
    4063     3922     3923 1
    4064     3922     3926 1
    4065     3923     3924 1
    4066     3924     3925 1
    4067     3924     3928 1
    4068     3925     3926 1
    4069     3925     3931 1
    4070     3929     3930 1
    4071     3929     3937 1
    4072     3930     3931 1
    4073     3930     3938 1
    4074     3931     3932 1
    4075     3932     3933 1
    4076     3932     3936 1
    4077     3933     3934 1
    4078     3934     3935 1
    4079     3935     3936 1
    4080     3936     3937 1
    4081     3937     4065 1
    4082     3939     3940 1
    4083     3939     3959 1
    4084     3939     3960 1
    4085     3940     3941 1
    4086     3940     3951 1
    4087     3940     3961 1
    4088     3941     3942 1
    4089     3941     3962 1
    4090     3941     3963 1
    4091     3942     3943 1
    4092     3942     3964 1
    4093     3942     3965 1
    4094     3943     3944 1
    4095     3943     3966 1
    4096     3943     3967 1
    4097     3944     3945 1
    4098     3944     3968 1
    4099     3944     3969 1
    4100     3945     3946 1
    4101     3945     3970 1
    4102     3945     3971 1
    4103     3946     3947 1
    4104     3946     3972 1
    4105     3946     3973 1
    4106     3947     3948 1
    4107     3947     3974 1
    4108     3947     3975 1
    4109     3948     3949 1
    4110     3948     3976 1
    4111     3948     3977 1
    4112     3949     3950 1
    4113     3949     3978 1
    4114     3949     3979 1
    4115     3950     3980 1
    4116     3950     3981 1
    4117     3950     3982 1
    4118     3951     3952 1
    4119     3951     3983 1
    4120     3951     3984 1
    4121     3952     3953 1
    4122     3952     3985 1
    4123     3952     3986 1
    4124     3953     3954 1
    4125     3953     3987 1
    4126     3953     3988 1
    4127     3954     3955 1
    4128     3954     3989 1
    4129     3954     3990 1
    4130     3955     3956 1
    4131     3955     3991 1
    4132     3955     3992 1
    4133     3956     3957 1
    4134     3956     3993 1
    4135     3956     3994 1
    4136     3957     3958 1
    4137     3957     3995 1
    4138     3957     3996 1
    4139     3958     3997 1
    4140     3958     3998 1
    4141     3958     3999 1
    4142     4000     4001 1
    4143     4000     4020 1
    4144     4000     4021 1
    4145     4001     4002 1
    4146     4001     4012 1
    4147     4001     4022 1
    4148     4002     4003 1
    4149     4002     4023 1
    4150     4002     4024 1
    4151     4003     4004 1
    4152     4003     4025 1
    4153     4003     4026 1
    4154     4004     4005 1
    4155     4004     4027 1
    4156     4004     4028 1
    4157     4005     4006 1
    4158     4005     4029 1
    4159     4005     4030 1
    4160     4006     4007 1
    4161     4006     4031 1
    4162     4006     4032 1
    4163     4007     4008 1
    4164     4007     4033 1
    4165     4007     4034 1
    4166     4008     4009 1
    4167     4008     4035 1
    4168     4008     4036 1
    4169     4009     4010 1
    4170     4009     4037 1
    4171     4009     4038 1
    4172     4010     4011 1
    4173     4010     4039 1
    4174     4010     4040 1
    4175     4011     4041 1
    4176     4011     4042 1
    4177     4011     4043 1
    4178     4012     4013 1
    4179     4012     4044 1
    4180     4012     4045 1
    4181     4013     4014 1
    4182     4013     4046 1
    4183     4013     4047 1
    4184     4014     4015 1
    4185     4014     4048 1
    4186     4014     4049 1
    4187     4015     4016 1
    4188     4015     4050 1
    4189     4015     4051 1
    4190     4016     4017 1
    4191     4016     4052 1
    4192     4016     4053 1
    4193     4017     4018 1
    4194     4017     4054 1
    4195     4017     4055 1
    4196     4018     4019 1
    4197     4018     4056 1
    4198     4018     4057 1
    4199     4019     4058 1
    4200     4019     4059 1
    4201     4019     4060 1
    4202     4061     4062 1
    4203     4061     4068 1
    4204     4061     4084 1
    4205     4061     4145 1
    4206     4062     4063 1
    4207     4062     4066 1
    4208     4063     4064 1
    4209     4063     4067 1
    4210     4064     4065 1
    4211     4065     4066 1
    4212     4066     4072 1
    4213     4067     4068 1
    4214     4067     4071 1
    4215     4068     4069 1
    4216     4069     4070 1
    4217     4069     4073 1
    4218     4070     4071 1
    4219     4070     4076 1
    4220     4074     4075 1
    4221     4074     4082 1
    4222     4075     4076 1
    4223     4075     4083 1
    4224     4076     4077 1
    4225     4077     4078 1
    4226     4077     4081 1
    4227     4078     4079 1
    4228     4079     4080 1
    4229     4080     4081 1
    4230     4081     4082 1
    4231     4082     4210 1
    4232     4084     4085 1
    4233     4084     4104 1
    4234     4084     4105 1
    4235     4085     4086 1
    4236     4085     4096 1
    4237     4085     4106 1
    4238     4086     4087 1
    4239     4086     4107 1
    4240     4086     4108 1
    4241     4087     4088 1
    4242     4087     4109 1
    4243     4087     4110 1
    4244     4088     4089 1
    4245     4088     4111 1
    4246     4088     4112 1
    4247     4089     4090 1
    4248     4089     4113 1
    4249     4089     4114 1
    4250     4090     4091 1
    4251     4090     4115 1
    4252     4090     4116 1
    4253     4091     4092 1
    4254     4091     4117 1
    4255     4091     4118 1
    4256     4092     4093 1
    4257     4092     4119 1
    4258     4092     4120 1
    4259     4093     4094 1
    4260     4093     4121 1
    4261     4093     4122 1
    4262     4094     4095 1
    4263     4094     4123 1
    4264     4094     4124 1
    4265     4095     4125 1
    4266     4095     4126 1
    4267     4095     4127 1
    4268     4096     4097 1
    4269     4096     4128 1
    4270     4096     4129 1
    4271     4097     4098 1
    4272     4097     4130 1
    4273     4097     4131 1
    4274     4098     4099 1
    4275     4098     4132 1
    4276     4098     4133 1
    4277     4099     4100 1
    4278     4099     4134 1
    4279     4099     4135 1
    4280     4100     4101 1
    4281     4100     4136 1
    4282     4100     4137 1
    4283     4101     4102 1
    4284     4101     4138 1
    4285     4101     4139 1
    4286     4102     4103 1
    4287     4102     4140 1
    4288     4102     4141 1
    4289     4103     4142 1
    4290     4103     4143 1
    4291     4103     4144 1
    4292     4145     4146 1
    4293     4145     4165 1
    4294     4145     4166 1
    4295     4146     4147 1
    4296     4146     4157 1
    4297     4146     4167 1
    4298     4147     4148 1
    4299     4147     4168 1
    4300     4147     4169 1
    4301     4148     4149 1
    4302     4148     4170 1
    4303     4148     4171 1
    4304     4149     4150 1
    4305     4149     4172 1
    4306     4149     4173 1
    4307     4150     4151 1
    4308     4150     4174 1
    4309     4150     4175 1
    4310     4151     4152 1
    4311     4151     4176 1
    4312     4151     4177 1
    4313     4152     4153 1
    4314     4152     4178 1
    4315     4152     4179 1
    4316     4153     4154 1
    4317     4153     4180 1
    4318     4153     4181 1
    4319     4154     4155 1
    4320     4154     4182 1
    4321     4154     4183 1
    4322     4155     4156 1
    4323     4155     4184 1
    4324     4155     4185 1
    4325     4156     4186 1
    4326     4156     4187 1
    4327     4156     4188 1
    4328     4157     4158 1
    4329     4157     4189 1
    4330     4157     4190 1
    4331     4158     4159 1
    4332     4158     4191 1
    4333     4158     4192 1
    4334     4159     4160 1
    4335     4159     4193 1
    4336     4159     4194 1
    4337     4160     4161 1
    4338     4160     4195 1
    4339     4160     4196 1
    4340     4161     4162 1
    4341     4161     4197 1
    4342     4161     4198 1
    4343     4162     4163 1
    4344     4162     4199 1
    4345     4162     4200 1
    4346     4163     4164 1
    4347     4163     4201 1
    4348     4163     4202 1
    4349     4164     4203 1
    4350     4164     4204 1
    4351     4164     4205 1
    4352     4206     4207 1
    4353     4206     4213 1
    4354     4206     4229 1
    4355     4206     4290 1
    4356     4207     4208 1
    4357     4207     4211 1
    4358     4208     4209 1
    4359     4208     4212 1
    4360     4209     4210 1
    4361     4210     4211 1
    4362     4211     4217 1
    4363     4212     4213 1
    4364     4212     4216 1
    4365     4213     4214 1
    4366     4214     4215 1
    4367     4214     4218 1
    4368     4215     4216 1
    4369     4215     4221 1
    4370     4219     4220 1
    4371     4219     4227 1
    4372     4220     4221 1
    4373     4220     4228 1
    4374     4221     4222 1
    4375     4222     4223 1
    4376     4222     4226 1
    4377     4223     4224 1
    4378     4224     4225 1
    4379     4225     4226 1
    4380     4226     4227 1
    4381     4227     4355 1
    4382     4229     4230 1
    4383     4229     4249 1
    4384     4229     4250 1
    4385     4230     4231 1
    4386     4230     4241 1
    4387     4230     4251 1
    4388     4231     4232 1
    4389     4231     4252 1
    4390     4231     4253 1
    4391     4232     4233 1
    4392     4232     4254 1
    4393     4232     4255 1
    4394     4233     4234 1
    4395     4233     4256 1
    4396     4233     4257 1
    4397     4234     4235 1
    4398     4234     4258 1
    4399     4234     4259 1
    4400     4235     4236 1
    4401     4235     4260 1
    4402     4235     4261 1
    4403     4236     4237 1
    4404     4236     4262 1
    4405     4236     4263 1
    4406     4237     4238 1
    4407     4237     4264 1
    4408     4237     4265 1
    4409     4238     4239 1
    4410     4238     4266 1
    4411     4238     4267 1
    4412     4239     4240 1
    4413     4239     4268 1
    4414     4239     4269 1
    4415     4240     4270 1
    4416     4240     4271 1
    4417     4240     4272 1
    4418     4241     4242 1
    4419     4241     4273 1
    4420     4241     4274 1
    4421     4242     4243 1
    4422     4242     4275 1
    4423     4242     4276 1
    4424     4243     4244 1
    4425     4243     4277 1
    4426     4243     4278 1
    4427     4244     4245 1
    4428     4244     4279 1
    4429     4244     4280 1
    4430     4245     4246 1
    4431     4245     4281 1
    4432     4245     4282 1
    4433     4246     4247 1
    4434     4246     4283 1
    4435     4246     4284 1
    4436     4247     4248 1
    4437     4247     4285 1
    4438     4247     4286 1
    4439     4248     4287 1
    4440     4248     4288 1
    4441     4248     4289 1
    4442     4290     4291 1
    4443     4290     4310 1
    4444     4290     4311 1
    4445     4291     4292 1
    4446     4291     4302 1
    4447     4291     4312 1
    4448     4292     4293 1
    4449     4292     4313 1
    4450     4292     4314 1
    4451     4293     4294 1
    4452     4293     4315 1
    4453     4293     4316 1
    4454     4294     4295 1
    4455     4294     4317 1
    4456     4294     4318 1
    4457     4295     4296 1
    4458     4295     4319 1
    4459     4295     4320 1
    4460     4296     4297 1
    4461     4296     4321 1
    4462     4296     4322 1
    4463     4297     4298 1
    4464     4297     4323 1
    4465     4297     4324 1
    4466     4298     4299 1
    4467     4298     4325 1
    4468     4298     4326 1
    4469     4299     4300 1
    4470     4299     4327 1
    4471     4299     4328 1
    4472     4300     4301 1
    4473     4300     4329 1
    4474     4300     4330 1
    4475     4301     4331 1
    4476     4301     4332 1
    4477     4301     4333 1
    4478     4302     4303 1
    4479     4302     4334 1
    4480     4302     4335 1
    4481     4303     4304 1
    4482     4303     4336 1
    4483     4303     4337 1
    4484     4304     4305 1
    4485     4304     4338 1
    4486     4304     4339 1
    4487     4305     4306 1
    4488     4305     4340 1
    4489     4305     4341 1
    4490     4306     4307 1
    4491     4306     4342 1
    4492     4306     4343 1
    4493     4307     4308 1
    4494     4307     4344 1
    4495     4307     4345 1
    4496     4308     4309 1
    4497     4308     4346 1
    4498     4308     4347 1
    4499     4309     4348 1
    4500     4309     4349 1
    4501     4309     4350 1
    4502     4351     4352 1
    4503     4351     4358 1
    4504     4351     4374 1
    4505     4351     4435 1
    4506     4352     4353 1
    4507     4352     4356 1
    4508     4353     4354 1
    4509     4353     4357 1
    4510     4354     4355 1
    4511     4355     4356 1
    4512     4356     4362 1
    4513     4357     4358 1
    4514     4357     4361 1
    4515     4358     4359 1
    4516     4359     4360 1
    4517     4359     4363 1
    4518     4360     4361 1
    4519     4360     4366 1
    4520     4364     4365 1
    4521     4364     4372 1
    4522     4365     4366 1
    4523     4365     4373 1
    4524     4366     4367 1
    4525     4367     4368 1
    4526     4367     4371 1
    4527     4368     4369 1
    4528     4369     4370 1
    4529     4370     4371 1
    4530     4371     4372 1
    4531     4372     4500 1
    4532     4374     4375 1
    4533     4374     4394 1
    4534     4374     4395 1
    4535     4375     4376 1
    4536     4375     4386 1
    4537     4375     4396 1
    4538     4376     4377 1
    4539     4376     4397 1
    4540     4376     4398 1
    4541     4377     4378 1
    4542     4377     4399 1
    4543     4377     4400 1
    4544     4378     4379 1
    4545     4378     4401 1
    4546     4378     4402 1
    4547     4379     4380 1
    4548     4379     4403 1
    4549     4379     4404 1
    4550     4380     4381 1
    4551     4380     4405 1
    4552     4380     4406 1
    4553     4381     4382 1
    4554     4381     4407 1
    4555     4381     4408 1
    4556     4382     4383 1
    4557     4382     4409 1
    4558     4382     4410 1
    4559     4383     4384 1
    4560     4383     4411 1
    4561     4383     4412 1
    4562     4384     4385 1
    4563     4384     4413 1
    4564     4384     4414 1
    4565     4385     4415 1
    4566     4385     4416 1
    4567     4385     4417 1
    4568     4386     4387 1
    4569     4386     4418 1
    4570     4386     4419 1
    4571     4387     4388 1
    4572     4387     4420 1
    4573     4387     4421 1
    4574     4388     4389 1
    4575     4388     4422 1
    4576     4388     4423 1
    4577     4389     4390 1
    4578     4389     4424 1
    4579     4389     4425 1
    4580     4390     4391 1
    4581     4390     4426 1
    4582     4390     4427 1
    4583     4391     4392 1
    4584     4391     4428 1
    4585     4391     4429 1
    4586     4392     4393 1
    4587     4392     4430 1
    4588     4392     4431 1
    4589     4393     4432 1
    4590     4393     4433 1
    4591     4393     4434 1
    4592     4435     4436 1
    4593     4435     4455 1
    4594     4435     4456 1
    4595     4436     4437 1
    4596     4436     4447 1
    4597     4436     4457 1
    4598     4437     4438 1
    4599     4437     4458 1
    4600     4437     4459 1
    4601     4438     4439 1
    4602     4438     4460 1
    4603     4438     4461 1
    4604     4439     4440 1
    4605     4439     4462 1
    4606     4439     4463 1
    4607     4440     4441 1
    4608     4440     4464 1
    4609     4440     4465 1
    4610     4441     4442 1
    4611     4441     4466 1
    4612     4441     4467 1
    4613     4442     4443 1
    4614     4442     4468 1
    4615     4442     4469 1
    4616     4443     4444 1
    4617     4443     4470 1
    4618     4443     4471 1
    4619     4444     4445 1
    4620     4444     4472 1
    4621     4444     4473 1
    4622     4445     4446 1
    4623     4445     4474 1
    4624     4445     4475 1
    4625     4446     4476 1
    4626     4446     4477 1
    4627     4446     4478 1
    4628     4447     4448 1
    4629     4447     4479 1
    4630     4447     4480 1
    4631     4448     4449 1
    4632     4448     4481 1
    4633     4448     4482 1
    4634     4449     4450 1
    4635     4449     4483 1
    4636     4449     4484 1
    4637     4450     4451 1
    4638     4450     4485 1
    4639     4450     4486 1
    4640     4451     4452 1
    4641     4451     4487 1
    4642     4451     4488 1
    4643     4452     4453 1
    4644     4452     4489 1
    4645     4452     4490 1
    4646     4453     4454 1
    4647     4453     4491 1
    4648     4453     4492 1
    4649     4454     4493 1
    4650     4454     4494 1
    4651     4454     4495 1
    4652     4496     4497 1
    4653     4496     4503 1
    4654     4496     4519 1
    4655     4496     4580 1
    4656     4497     4498 1
    4657     4497     4501 1
    4658     4498     4499 1
    4659     4498     4502 1
    4660     4499     4500 1
    4661     4500     4501 1
    4662     4501     4507 1
    4663     4502     4503 1
    4664     4502     4506 1
    4665     4503     4504 1
    4666     4504     4505 1
    4667     4504     4508 1
    4668     4505     4506 1
    4669     4505     4511 1
    4670     4509     4510 1
    4671     4509     4517 1
    4672     4510     4511 1
    4673     4510     4518 1
    4674     4511     4512 1
    4675     4512     4513 1
    4676     4512     4516 1
    4677     4513     4514 1
    4678     4514     4515 1
    4679     4515     4516 1
    4680     4516     4517 1
    4681     4517     4645 1
    4682     4519     4520 1
    4683     4519     4539 1
    4684     4519     4540 1
    4685     4520     4521 1
    4686     4520     4531 1
    4687     4520     4541 1
    4688     4521     4522 1
    4689     4521     4542 1
    4690     4521     4543 1
    4691     4522     4523 1
    4692     4522     4544 1
    4693     4522     4545 1
    4694     4523     4524 1
    4695     4523     4546 1
    4696     4523     4547 1
    4697     4524     4525 1
    4698     4524     4548 1
    4699     4524     4549 1
    4700     4525     4526 1
    4701     4525     4550 1
    4702     4525     4551 1
    4703     4526     4527 1
    4704     4526     4552 1
    4705     4526     4553 1
    4706     4527     4528 1
    4707     4527     4554 1
    4708     4527     4555 1
    4709     4528     4529 1
    4710     4528     4556 1
    4711     4528     4557 1
    4712     4529     4530 1
    4713     4529     4558 1
    4714     4529     4559 1
    4715     4530     4560 1
    4716     4530     4561 1
    4717     4530     4562 1
    4718     4531     4532 1
    4719     4531     4563 1
    4720     4531     4564 1
    4721     4532     4533 1
    4722     4532     4565 1
    4723     4532     4566 1
    4724     4533     4534 1
    4725     4533     4567 1
    4726     4533     4568 1
    4727     4534     4535 1
    4728     4534     4569 1
    4729     4534     4570 1
    4730     4535     4536 1
    4731     4535     4571 1
    4732     4535     4572 1
    4733     4536     4537 1
    4734     4536     4573 1
    4735     4536     4574 1
    4736     4537     4538 1
    4737     4537     4575 1
    4738     4537     4576 1
    4739     4538     4577 1
    4740     4538     4578 1
    4741     4538     4579 1
    4742     4580     4581 1
    4743     4580     4600 1
    4744     4580     4601 1
    4745     4581     4582 1
    4746     4581     4592 1
    4747     4581     4602 1
    4748     4582     4583 1
    4749     4582     4603 1
    4750     4582     4604 1
    4751     4583     4584 1
    4752     4583     4605 1
    4753     4583     4606 1
    4754     4584     4585 1
    4755     4584     4607 1
    4756     4584     4608 1
    4757     4585     4586 1
    4758     4585     4609 1
    4759     4585     4610 1
    4760     4586     4587 1
    4761     4586     4611 1
    4762     4586     4612 1
    4763     4587     4588 1
    4764     4587     4613 1
    4765     4587     4614 1
    4766     4588     4589 1
    4767     4588     4615 1
    4768     4588     4616 1
    4769     4589     4590 1
    4770     4589     4617 1
    4771     4589     4618 1
    4772     4590     4591 1
    4773     4590     4619 1
    4774     4590     4620 1
    4775     4591     4621 1
    4776     4591     4622 1
    4777     4591     4623 1
    4778     4592     4593 1
    4779     4592     4624 1
    4780     4592     4625 1
    4781     4593     4594 1
    4782     4593     4626 1
    4783     4593     4627 1
    4784     4594     4595 1
    4785     4594     4628 1
    4786     4594     4629 1
    4787     4595     4596 1
    4788     4595     4630 1
    4789     4595     4631 1
    4790     4596     4597 1
    4791     4596     4632 1
    4792     4596     4633 1
    4793     4597     4598 1
    4794     4597     4634 1
    4795     4597     4635 1
    4796     4598     4599 1
    4797     4598     4636 1
    4798     4598     4637 1
    4799     4599     4638 1
    4800     4599     4639 1
    4801     4599     4640 1
    4802     4641     4642 1
    4803     4641     4648 1
    4804     4641     4664 1
    4805     4641     4725 1
    4806     4642     4643 1
    4807     4642     4646 1
    4808     4643     4644 1
    4809     4643     4647 1
    4810     4644     4645 1
    4811     4645     4646 1
    4812     4646     4652 1
    4813     4647     4648 1
    4814     4647     4651 1
    4815     4648     4649 1
    4816     4649     4650 1
    4817     4649     4653 1
    4818     4650     4651 1
    4819     4650     4656 1
    4820     4654     4655 1
    4821     4654     4662 1
    4822     4655     4656 1
    4823     4655     4663 1
    4824     4656     4657 1
    4825     4657     4658 1
    4826     4657     4661 1
    4827     4658     4659 1
    4828     4659     4660 1
    4829     4660     4661 1
    4830     4661     4662 1
    4831     4662     4790 1
    4832     4664     4665 1
    4833     4664     4684 1
    4834     4664     4685 1
    4835     4665     4666 1
    4836     4665     4676 1
    4837     4665     4686 1
    4838     4666     4667 1
    4839     4666     4687 1
    4840     4666     4688 1
    4841     4667     4668 1
    4842     4667     4689 1
    4843     4667     4690 1
    4844     4668     4669 1
    4845     4668     4691 1
    4846     4668     4692 1
    4847     4669     4670 1
    4848     4669     4693 1
    4849     4669     4694 1
    4850     4670     4671 1
    4851     4670     4695 1
    4852     4670     4696 1
    4853     4671     4672 1
    4854     4671     4697 1
    4855     4671     4698 1
    4856     4672     4673 1
    4857     4672     4699 1
    4858     4672     4700 1
    4859     4673     4674 1
    4860     4673     4701 1
    4861     4673     4702 1
    4862     4674     4675 1
    4863     4674     4703 1
    4864     4674     4704 1
    4865     4675     4705 1
    4866     4675     4706 1
    4867     4675     4707 1
    4868     4676     4677 1
    4869     4676     4708 1
    4870     4676     4709 1
    4871     4677     4678 1
    4872     4677     4710 1
    4873     4677     4711 1
    4874     4678     4679 1
    4875     4678     4712 1
    4876     4678     4713 1
    4877     4679     4680 1
    4878     4679     4714 1
    4879     4679     4715 1
    4880     4680     4681 1
    4881     4680     4716 1
    4882     4680     4717 1
    4883     4681     4682 1
    4884     4681     4718 1
    4885     4681     4719 1
    4886     4682     4683 1
    4887     4682     4720 1
    4888     4682     4721 1
    4889     4683     4722 1
    4890     4683     4723 1
    4891     4683     4724 1
    4892     4725     4726 1
    4893     4725     4745 1
    4894     4725     4746 1
    4895     4726     4727 1
    4896     4726     4737 1
    4897     4726     4747 1
    4898     4727     4728 1
    4899     4727     4748 1
    4900     4727     4749 1
    4901     4728     4729 1
    4902     4728     4750 1
    4903     4728     4751 1
    4904     4729     4730 1
    4905     4729     4752 1
    4906     4729     4753 1
    4907     4730     4731 1
    4908     4730     4754 1
    4909     4730     4755 1
    4910     4731     4732 1
    4911     4731     4756 1
    4912     4731     4757 1
    4913     4732     4733 1
    4914     4732     4758 1
    4915     4732     4759 1
    4916     4733     4734 1
    4917     4733     4760 1
    4918     4733     4761 1
    4919     4734     4735 1
    4920     4734     4762 1
    4921     4734     4763 1
    4922     4735     4736 1
    4923     4735     4764 1
    4924     4735     4765 1
    4925     4736     4766 1
    4926     4736     4767 1
    4927     4736     4768 1
    4928     4737     4738 1
    4929     4737     4769 1
    4930     4737     4770 1
    4931     4738     4739 1
    4932     4738     4771 1
    4933     4738     4772 1
    4934     4739     4740 1
    4935     4739     4773 1
    4936     4739     4774 1
    4937     4740     4741 1
    4938     4740     4775 1
    4939     4740     4776 1
    4940     4741     4742 1
    4941     4741     4777 1
    4942     4741     4778 1
    4943     4742     4743 1
    4944     4742     4779 1
    4945     4742     4780 1
    4946     4743     4744 1
    4947     4743     4781 1
    4948     4743     4782 1
    4949     4744     4783 1
    4950     4744     4784 1
    4951     4744     4785 1
    4952     4786     4787 1
    4953     4786     4793 1
    4954     4786     4809 1
    4955     4786     4870 1
    4956     4787     4788 1
    4957     4787     4791 1
    4958     4788     4789 1
    4959     4788     4792 1
    4960     4789     4790 1
    4961     4790     4791 1
    4962     4791     4797 1
    4963     4792     4793 1
    4964     4792     4796 1
    4965     4793     4794 1
    4966     4794     4795 1
    4967     4794     4798 1
    4968     4795     4796 1
    4969     4795     4801 1
    4970     4799     4800 1
    4971     4799     4807 1
    4972     4800     4801 1
    4973     4800     4808 1
    4974     4801     4802 1
    4975     4802     4803 1
    4976     4802     4806 1
    4977     4803     4804 1
    4978     4804     4805 1
    4979     4805     4806 1
    4980     4806     4807 1
    4981     4807     4935 1
    4982     4809     4810 1
    4983     4809     4829 1
    4984     4809     4830 1
    4985     4810     4811 1
    4986     4810     4821 1
    4987     4810     4831 1
    4988     4811     4812 1
    4989     4811     4832 1
    4990     4811     4833 1
    4991     4812     4813 1
    4992     4812     4834 1
    4993     4812     4835 1
    4994     4813     4814 1
    4995     4813     4836 1
    4996     4813     4837 1
    4997     4814     4815 1
    4998     4814     4838 1
    4999     4814     4839 1
    5000     4815     4816 1
    5001     4815     4840 1
    5002     4815     4841 1
    5003     4816     4817 1
    5004     4816     4842 1
    5005     4816     4843 1
    5006     4817     4818 1
    5007     4817     4844 1
    5008     4817     4845 1
    5009     4818     4819 1
    5010     4818     4846 1
    5011     4818     4847 1
    5012     4819     4820 1
    5013     4819     4848 1
    5014     4819     4849 1
    5015     4820     4850 1
    5016     4820     4851 1
    5017     4820     4852 1
    5018     4821     4822 1
    5019     4821     4853 1
    5020     4821     4854 1
    5021     4822     4823 1
    5022     4822     4855 1
    5023     4822     4856 1
    5024     4823     4824 1
    5025     4823     4857 1
    5026     4823     4858 1
    5027     4824     4825 1
    5028     4824     4859 1
    5029     4824     4860 1
    5030     4825     4826 1
    5031     4825     4861 1
    5032     4825     4862 1
    5033     4826     4827 1
    5034     4826     4863 1
    5035     4826     4864 1
    5036     4827     4828 1
    5037     4827     4865 1
    5038     4827     4866 1
    5039     4828     4867 1
    5040     4828     4868 1
    5041     4828     4869 1
    5042     4870     4871 1
    5043     4870     4890 1
    5044     4870     4891 1
    5045     4871     4872 1
    5046     4871     4882 1
    5047     4871     4892 1
    5048     4872     4873 1
    5049     4872     4893 1
    5050     4872     4894 1
    5051     4873     4874 1
    5052     4873     4895 1
    5053     4873     4896 1
    5054     4874     4875 1
    5055     4874     4897 1
    5056     4874     4898 1
    5057     4875     4876 1
    5058     4875     4899 1
    5059     4875     4900 1
    5060     4876     4877 1
    5061     4876     4901 1
    5062     4876     4902 1
    5063     4877     4878 1
    5064     4877     4903 1
    5065     4877     4904 1
    5066     4878     4879 1
    5067     4878     4905 1
    5068     4878     4906 1
    5069     4879     4880 1
    5070     4879     4907 1
    5071     4879     4908 1
    5072     4880     4881 1
    5073     4880     4909 1
    5074     4880     4910 1
    5075     4881     4911 1
    5076     4881     4912 1
    5077     4881     4913 1
    5078     4882     4883 1
    5079     4882     4914 1
    5080     4882     4915 1
    5081     4883     4884 1
    5082     4883     4916 1
    5083     4883     4917 1
    5084     4884     4885 1
    5085     4884     4918 1
    5086     4884     4919 1
    5087     4885     4886 1
    5088     4885     4920 1
    5089     4885     4921 1
    5090     4886     4887 1
    5091     4886     4922 1
    5092     4886     4923 1
    5093     4887     4888 1
    5094     4887     4924 1
    5095     4887     4925 1
    5096     4888     4889 1
    5097     4888     4926 1
    5098     4888     4927 1
    5099     4889     4928 1
    5100     4889     4929 1
    5101     4889     4930 1
    5102     4931     4932 1
    5103     4931     4938 1
    5104     4931     4954 1
    5105     4931     5015 1
    5106     4932     4933 1
    5107     4932     4936 1
    5108     4933     4934 1
    5109     4933     4937 1
    5110     4934     4935 1
    5111     4935     4936 1
    5112     4936     4942 1
    5113     4937     4938 1
    5114     4937     4941 1
    5115     4938     4939 1
    5116     4939     4940 1
    5117     4939     4943 1
    5118     4940     4941 1
    5119     4940     4946 1
    5120     4944     4945 1
    5121     4944     4952 1
    5122     4945     4946 1
    5123     4945     4953 1
    5124     4946     4947 1
    5125     4947     4948 1
    5126     4947     4951 1
    5127     4948     4949 1
    5128     4949     4950 1
    5129     4950     4951 1
    5130     4951     4952 1
    5131     4952     5080 1
    5132     4954     4955 1
    5133     4954     4974 1
    5134     4954     4975 1
    5135     4955     4956 1
    5136     4955     4966 1
    5137     4955     4976 1
    5138     4956     4957 1
    5139     4956     4977 1
    5140     4956     4978 1
    5141     4957     4958 1
    5142     4957     4979 1
    5143     4957     4980 1
    5144     4958     4959 1
    5145     4958     4981 1
    5146     4958     4982 1
    5147     4959     4960 1
    5148     4959     4983 1
    5149     4959     4984 1
    5150     4960     4961 1
    5151     4960     4985 1
    5152     4960     4986 1
    5153     4961     4962 1
    5154     4961     4987 1
    5155     4961     4988 1
    5156     4962     4963 1
    5157     4962     4989 1
    5158     4962     4990 1
    5159     4963     4964 1
    5160     4963     4991 1
    5161     4963     4992 1
    5162     4964     4965 1
    5163     4964     4993 1
    5164     4964     4994 1
    5165     4965     4995 1
    5166     4965     4996 1
    5167     4965     4997 1
    5168     4966     4967 1
    5169     4966     4998 1
    5170     4966     4999 1
    5171     4967     4968 1
    5172     4967     5000 1
    5173     4967     5001 1
    5174     4968     4969 1
    5175     4968     5002 1
    5176     4968     5003 1
    5177     4969     4970 1
    5178     4969     5004 1
    5179     4969     5005 1
    5180     4970     4971 1
    5181     4970     5006 1
    5182     4970     5007 1
    5183     4971     4972 1
    5184     4971     5008 1
    5185     4971     5009 1
    5186     4972     4973 1
    5187     4972     5010 1
    5188     4972     5011 1
    5189     4973     5012 1
    5190     4973     5013 1
    5191     4973     5014 1
    5192     5015     5016 1
    5193     5015     5035 1
    5194     5015     5036 1
    5195     5016     5017 1
    5196     5016     5027 1
    5197     5016     5037 1
    5198     5017     5018 1
    5199     5017     5038 1
    5200     5017     5039 1
    5201     5018     5019 1
    5202     5018     5040 1
    5203     5018     5041 1
    5204     5019     5020 1
    5205     5019     5042 1
    5206     5019     5043 1
    5207     5020     5021 1
    5208     5020     5044 1
    5209     5020     5045 1
    5210     5021     5022 1
    5211     5021     5046 1
    5212     5021     5047 1
    5213     5022     5023 1
    5214     5022     5048 1
    5215     5022     5049 1
    5216     5023     5024 1
    5217     5023     5050 1
    5218     5023     5051 1
    5219     5024     5025 1
    5220     5024     5052 1
    5221     5024     5053 1
    5222     5025     5026 1
    5223     5025     5054 1
    5224     5025     5055 1
    5225     5026     5056 1
    5226     5026     5057 1
    5227     5026     5058 1
    5228     5027     5028 1
    5229     5027     5059 1
    5230     5027     5060 1
    5231     5028     5029 1
    5232     5028     5061 1
    5233     5028     5062 1
    5234     5029     5030 1
    5235     5029     5063 1
    5236     5029     5064 1
    5237     5030     5031 1
    5238     5030     5065 1
    5239     5030     5066 1
    5240     5031     5032 1
    5241     5031     5067 1
    5242     5031     5068 1
    5243     5032     5033 1
    5244     5032     5069 1
    5245     5032     5070 1
    5246     5033     5034 1
    5247     5033     5071 1
    5248     5033     5072 1
    5249     5034     5073 1
    5250     5034     5074 1
    5251     5034     5075 1
    5252     5076     5077 1
    5253     5076     5083 1
    5254     5076     5099 1
    5255     5076     5160 1
    5256     5077     5078 1
    5257     5077     5081 1
    5258     5078     5079 1
    5259     5078     5082 1
    5260     5079     5080 1
    5261     5080     5081 1
    5262     5081     5087 1
    5263     5082     5083 1
    5264     5082     5086 1
    5265     5083     5084 1
    5266     5084     5085 1
    5267     5084     5088 1
    5268     5085     5086 1
    5269     5085     5091 1
    5270     5089     5090 1
    5271     5089     5097 1
    5272     5090     5091 1
    5273     5090     5098 1
    5274     5091     5092 1
    5275     5092     5093 1
    5276     5092     5096 1
    5277     5093     5094 1
    5278     5094     5095 1
    5279     5095     5096 1
    5280     5096     5097 1
    5281     5097     5225 1
    5282     5099     5100 1
    5283     5099     5119 1
    5284     5099     5120 1
    5285     5100     5101 1
    5286     5100     5111 1
    5287     5100     5121 1
    5288     5101     5102 1
    5289     5101     5122 1
    5290     5101     5123 1
    5291     5102     5103 1
    5292     5102     5124 1
    5293     5102     5125 1
    5294     5103     5104 1
    5295     5103     5126 1
    5296     5103     5127 1
    5297     5104     5105 1
    5298     5104     5128 1
    5299     5104     5129 1
    5300     5105     5106 1
    5301     5105     5130 1
    5302     5105     5131 1
    5303     5106     5107 1
    5304     5106     5132 1
    5305     5106     5133 1
    5306     5107     5108 1
    5307     5107     5134 1
    5308     5107     5135 1
    5309     5108     5109 1
    5310     5108     5136 1
    5311     5108     5137 1
    5312     5109     5110 1
    5313     5109     5138 1
    5314     5109     5139 1
    5315     5110     5140 1
    5316     5110     5141 1
    5317     5110     5142 1
    5318     5111     5112 1
    5319     5111     5143 1
    5320     5111     5144 1
    5321     5112     5113 1
    5322     5112     5145 1
    5323     5112     5146 1
    5324     5113     5114 1
    5325     5113     5147 1
    5326     5113     5148 1
    5327     5114     5115 1
    5328     5114     5149 1
    5329     5114     5150 1
    5330     5115     5116 1
    5331     5115     5151 1
    5332     5115     5152 1
    5333     5116     5117 1
    5334     5116     5153 1
    5335     5116     5154 1
    5336     5117     5118 1
    5337     5117     5155 1
    5338     5117     5156 1
    5339     5118     5157 1
    5340     5118     5158 1
    5341     5118     5159 1
    5342     5160     5161 1
    5343     5160     5180 1
    5344     5160     5181 1
    5345     5161     5162 1
    5346     5161     5172 1
    5347     5161     5182 1
    5348     5162     5163 1
    5349     5162     5183 1
    5350     5162     5184 1
    5351     5163     5164 1
    5352     5163     5185 1
    5353     5163     5186 1
    5354     5164     5165 1
    5355     5164     5187 1
    5356     5164     5188 1
    5357     5165     5166 1
    5358     5165     5189 1
    5359     5165     5190 1
    5360     5166     5167 1
    5361     5166     5191 1
    5362     5166     5192 1
    5363     5167     5168 1
    5364     5167     5193 1
    5365     5167     5194 1
    5366     5168     5169 1
    5367     5168     5195 1
    5368     5168     5196 1
    5369     5169     5170 1
    5370     5169     5197 1
    5371     5169     5198 1
    5372     5170     5171 1
    5373     5170     5199 1
    5374     5170     5200 1
    5375     5171     5201 1
    5376     5171     5202 1
    5377     5171     5203 1
    5378     5172     5173 1
    5379     5172     5204 1
    5380     5172     5205 1
    5381     5173     5174 1
    5382     5173     5206 1
    5383     5173     5207 1
    5384     5174     5175 1
    5385     5174     5208 1
    5386     5174     5209 1
    5387     5175     5176 1
    5388     5175     5210 1
    5389     5175     5211 1
    5390     5176     5177 1
    5391     5176     5212 1
    5392     5176     5213 1
    5393     5177     5178 1
    5394     5177     5214 1
    5395     5177     5215 1
    5396     5178     5179 1
    5397     5178     5216 1
    5398     5178     5217 1
    5399     5179     5218 1
    5400     5179     5219 1
    5401     5179     5220 1
    5402     5221     5222 1
    5403     5221     5228 1
    5404     5221     5244 1
    5405     5221     5305 1
    5406     5222     5223 1
    5407     5222     5226 1
    5408     5223     5224 1
    5409     5223     5227 1
    5410     5224     5225 1
    5411     5225     5226 1
    5412     5226     5232 1
    5413     5227     5228 1
    5414     5227     5231 1
    5415     5228     5229 1
    5416     5229     5230 1
    5417     5229     5233 1
    5418     5230     5231 1
    5419     5230     5236 1
    5420     5234     5235 1
    5421     5234     5242 1
    5422     5235     5236 1
    5423     5235     5243 1
    5424     5236     5237 1
    5425     5237     5238 1
    5426     5237     5241 1
    5427     5238     5239 1
    5428     5239     5240 1
    5429     5240     5241 1
    5430     5241     5242 1
    5431     5242     5370 1
    5432     5244     5245 1
    5433     5244     5264 1
    5434     5244     5265 1
    5435     5245     5246 1
    5436     5245     5256 1
    5437     5245     5266 1
    5438     5246     5247 1
    5439     5246     5267 1
    5440     5246     5268 1
    5441     5247     5248 1
    5442     5247     5269 1
    5443     5247     5270 1
    5444     5248     5249 1
    5445     5248     5271 1
    5446     5248     5272 1
    5447     5249     5250 1
    5448     5249     5273 1
    5449     5249     5274 1
    5450     5250     5251 1
    5451     5250     5275 1
    5452     5250     5276 1
    5453     5251     5252 1
    5454     5251     5277 1
    5455     5251     5278 1
    5456     5252     5253 1
    5457     5252     5279 1
    5458     5252     5280 1
    5459     5253     5254 1
    5460     5253     5281 1
    5461     5253     5282 1
    5462     5254     5255 1
    5463     5254     5283 1
    5464     5254     5284 1
    5465     5255     5285 1
    5466     5255     5286 1
    5467     5255     5287 1
    5468     5256     5257 1
    5469     5256     5288 1
    5470     5256     5289 1
    5471     5257     5258 1
    5472     5257     5290 1
    5473     5257     5291 1
    5474     5258     5259 1
    5475     5258     5292 1
    5476     5258     5293 1
    5477     5259     5260 1
    5478     5259     5294 1
    5479     5259     5295 1
    5480     5260     5261 1
    5481     5260     5296 1
    5482     5260     5297 1
    5483     5261     5262 1
    5484     5261     5298 1
    5485     5261     5299 1
    5486     5262     5263 1
    5487     5262     5300 1
    5488     5262     5301 1
    5489     5263     5302 1
    5490     5263     5303 1
    5491     5263     5304 1
    5492     5305     5306 1
    5493     5305     5325 1
    5494     5305     5326 1
    5495     5306     5307 1
    5496     5306     5317 1
    5497     5306     5327 1
    5498     5307     5308 1
    5499     5307     5328 1
    5500     5307     5329 1
    5501     5308     5309 1
    5502     5308     5330 1
    5503     5308     5331 1
    5504     5309     5310 1
    5505     5309     5332 1
    5506     5309     5333 1
    5507     5310     5311 1
    5508     5310     5334 1
    5509     5310     5335 1
    5510     5311     5312 1
    5511     5311     5336 1
    5512     5311     5337 1
    5513     5312     5313 1
    5514     5312     5338 1
    5515     5312     5339 1
    5516     5313     5314 1
    5517     5313     5340 1
    5518     5313     5341 1
    5519     5314     5315 1
    5520     5314     5342 1
    5521     5314     5343 1
    5522     5315     5316 1
    5523     5315     5344 1
    5524     5315     5345 1
    5525     5316     5346 1
    5526     5316     5347 1
    5527     5316     5348 1
    5528     5317     5318 1
    5529     5317     5349 1
    5530     5317     5350 1
    5531     5318     5319 1
    5532     5318     5351 1
    5533     5318     5352 1
    5534     5319     5320 1
    5535     5319     5353 1
    5536     5319     5354 1
    5537     5320     5321 1
    5538     5320     5355 1
    5539     5320     5356 1
    5540     5321     5322 1
    5541     5321     5357 1
    5542     5321     5358 1
    5543     5322     5323 1
    5544     5322     5359 1
    5545     5322     5360 1
    5546     5323     5324 1
    5547     5323     5361 1
    5548     5323     5362 1
    5549     5324     5363 1
    5550     5324     5364 1
    5551     5324     5365 1
    5552     5366     5367 1
    5553     5366     5373 1
    5554     5366     5389 1
    5555     5366     5450 1
    5556     5367     5368 1
    5557     5367     5371 1
    5558     5368     5369 1
    5559     5368     5372 1
    5560     5369     5370 1
    5561     5370     5371 1
    5562     5371     5377 1
    5563     5372     5373 1
    5564     5372     5376 1
    5565     5373     5374 1
    5566     5374     5375 1
    5567     5374     5378 1
    5568     5375     5376 1
    5569     5375     5381 1
    5570     5379     5380 1
    5571     5379     5387 1
    5572     5380     5381 1
    5573     5380     5388 1
    5574     5381     5382 1
    5575     5382     5383 1
    5576     5382     5386 1
    5577     5383     5384 1
    5578     5384     5385 1
    5579     5385     5386 1
    5580     5386     5387 1
    5581     5387     5515 1
    5582     5389     5390 1
    5583     5389     5409 1
    5584     5389     5410 1
    5585     5390     5391 1
    5586     5390     5401 1
    5587     5390     5411 1
    5588     5391     5392 1
    5589     5391     5412 1
    5590     5391     5413 1
    5591     5392     5393 1
    5592     5392     5414 1
    5593     5392     5415 1
    5594     5393     5394 1
    5595     5393     5416 1
    5596     5393     5417 1
    5597     5394     5395 1
    5598     5394     5418 1
    5599     5394     5419 1
    5600     5395     5396 1
    5601     5395     5420 1
    5602     5395     5421 1
    5603     5396     5397 1
    5604     5396     5422 1
    5605     5396     5423 1
    5606     5397     5398 1
    5607     5397     5424 1
    5608     5397     5425 1
    5609     5398     5399 1
    5610     5398     5426 1
    5611     5398     5427 1
    5612     5399     5400 1
    5613     5399     5428 1
    5614     5399     5429 1
    5615     5400     5430 1
    5616     5400     5431 1
    5617     5400     5432 1
    5618     5401     5402 1
    5619     5401     5433 1
    5620     5401     5434 1
    5621     5402     5403 1
    5622     5402     5435 1
    5623     5402     5436 1
    5624     5403     5404 1
    5625     5403     5437 1
    5626     5403     5438 1
    5627     5404     5405 1
    5628     5404     5439 1
    5629     5404     5440 1
    5630     5405     5406 1
    5631     5405     5441 1
    5632     5405     5442 1
    5633     5406     5407 1
    5634     5406     5443 1
    5635     5406     5444 1
    5636     5407     5408 1
    5637     5407     5445 1
    5638     5407     5446 1
    5639     5408     5447 1
    5640     5408     5448 1
    5641     5408     5449 1
    5642     5450     5451 1
    5643     5450     5470 1
    5644     5450     5471 1
    5645     5451     5452 1
    5646     5451     5462 1
    5647     5451     5472 1
    5648     5452     5453 1
    5649     5452     5473 1
    5650     5452     5474 1
    5651     5453     5454 1
    5652     5453     5475 1
    5653     5453     5476 1
    5654     5454     5455 1
    5655     5454     5477 1
    5656     5454     5478 1
    5657     5455     5456 1
    5658     5455     5479 1
    5659     5455     5480 1
    5660     5456     5457 1
    5661     5456     5481 1
    5662     5456     5482 1
    5663     5457     5458 1
    5664     5457     5483 1
    5665     5457     5484 1
    5666     5458     5459 1
    5667     5458     5485 1
    5668     5458     5486 1
    5669     5459     5460 1
    5670     5459     5487 1
    5671     5459     5488 1
    5672     5460     5461 1
    5673     5460     5489 1
    5674     5460     5490 1
    5675     5461     5491 1
    5676     5461     5492 1
    5677     5461     5493 1
    5678     5462     5463 1
    5679     5462     5494 1
    5680     5462     5495 1
    5681     5463     5464 1
    5682     5463     5496 1
    5683     5463     5497 1
    5684     5464     5465 1
    5685     5464     5498 1
    5686     5464     5499 1
    5687     5465     5466 1
    5688     5465     5500 1
    5689     5465     5501 1
    5690     5466     5467 1
    5691     5466     5502 1
    5692     5466     5503 1
    5693     5467     5468 1
    5694     5467     5504 1
    5695     5467     5505 1
    5696     5468     5469 1
    5697     5468     5506 1
    5698     5468     5507 1
    5699     5469     5508 1
    5700     5469     5509 1
    5701     5469     5510 1
    5702     5511     5512 1
    5703     5511     5518 1
    5704     5511     5534 1
    5705     5511     5595 1
    5706     5512     5513 1
    5707     5512     5516 1
    5708     5513     5514 1
    5709     5513     5517 1
    5710     5514     5515 1
    5711     5515     5516 1
    5712     5516     5522 1
    5713     5517     5518 1
    5714     5517     5521 1
    5715     5518     5519 1
    5716     5519     5520 1
    5717     5519     5523 1
    5718     5520     5521 1
    5719     5520     5526 1
    5720     5524     5525 1
    5721     5524     5532 1
    5722     5525     5526 1
    5723     5525     5533 1
    5724     5526     5527 1
    5725     5527     5528 1
    5726     5527     5531 1
    5727     5528     5529 1
    5728     5529     5530 1
    5729     5530     5531 1
    5730     5531     5532 1
    5731     5532     5660 1
    5732     5534     5535 1
    5733     5534     5554 1
    5734     5534     5555 1
    5735     5535     5536 1
    5736     5535     5546 1
    5737     5535     5556 1
    5738     5536     5537 1
    5739     5536     5557 1
    5740     5536     5558 1
    5741     5537     5538 1
    5742     5537     5559 1
    5743     5537     5560 1
    5744     5538     5539 1
    5745     5538     5561 1
    5746     5538     5562 1
    5747     5539     5540 1
    5748     5539     5563 1
    5749     5539     5564 1
    5750     5540     5541 1
    5751     5540     5565 1
    5752     5540     5566 1
    5753     5541     5542 1
    5754     5541     5567 1
    5755     5541     5568 1
    5756     5542     5543 1
    5757     5542     5569 1
    5758     5542     5570 1
    5759     5543     5544 1
    5760     5543     5571 1
    5761     5543     5572 1
    5762     5544     5545 1
    5763     5544     5573 1
    5764     5544     5574 1
    5765     5545     5575 1
    5766     5545     5576 1
    5767     5545     5577 1
    5768     5546     5547 1
    5769     5546     5578 1
    5770     5546     5579 1
    5771     5547     5548 1
    5772     5547     5580 1
    5773     5547     5581 1
    5774     5548     5549 1
    5775     5548     5582 1
    5776     5548     5583 1
    5777     5549     5550 1
    5778     5549     5584 1
    5779     5549     5585 1
    5780     5550     5551 1
    5781     5550     5586 1
    5782     5550     5587 1
    5783     5551     5552 1
    5784     5551     5588 1
    5785     5551     5589 1
    5786     5552     5553 1
    5787     5552     5590 1
    5788     5552     5591 1
    5789     5553     5592 1
    5790     5553     5593 1
    5791     5553     5594 1
    5792     5595     5596 1
    5793     5595     5615 1
    5794     5595     5616 1
    5795     5596     5597 1
    5796     5596     5607 1
    5797     5596     5617 1
    5798     5597     5598 1
    5799     5597     5618 1
    5800     5597     5619 1
    5801     5598     5599 1
    5802     5598     5620 1
    5803     5598     5621 1
    5804     5599     5600 1
    5805     5599     5622 1
    5806     5599     5623 1
    5807     5600     5601 1
    5808     5600     5624 1
    5809     5600     5625 1
    5810     5601     5602 1
    5811     5601     5626 1
    5812     5601     5627 1
    5813     5602     5603 1
    5814     5602     5628 1
    5815     5602     5629 1
    5816     5603     5604 1
    5817     5603     5630 1
    5818     5603     5631 1
    5819     5604     5605 1
    5820     5604     5632 1
    5821     5604     5633 1
    5822     5605     5606 1
    5823     5605     5634 1
    5824     5605     5635 1
    5825     5606     5636 1
    5826     5606     5637 1
    5827     5606     5638 1
    5828     5607     5608 1
    5829     5607     5639 1
    5830     5607     5640 1
    5831     5608     5609 1
    5832     5608     5641 1
    5833     5608     5642 1
    5834     5609     5610 1
    5835     5609     5643 1
    5836     5609     5644 1
    5837     5610     5611 1
    5838     5610     5645 1
    5839     5610     5646 1
    5840     5611     5612 1
    5841     5611     5647 1
    5842     5611     5648 1
    5843     5612     5613 1
    5844     5612     5649 1
    5845     5612     5650 1
    5846     5613     5614 1
    5847     5613     5651 1
    5848     5613     5652 1
    5849     5614     5653 1
    5850     5614     5654 1
    5851     5614     5655 1
    5852     5656     5657 1
    5853     5656     5663 1
    5854     5656     5679 1
    5855     5656     5740 1
    5856     5657     5658 1
    5857     5657     5661 1
    5858     5658     5659 1
    5859     5658     5662 1
    5860     5659     5660 1
    5861     5660     5661 1
    5862     5661     5667 1
    5863     5662     5663 1
    5864     5662     5666 1
    5865     5663     5664 1
    5866     5664     5665 1
    5867     5664     5668 1
    5868     5665     5666 1
    5869     5665     5671 1
    5870     5669     5670 1
    5871     5669     5677 1
    5872     5670     5671 1
    5873     5670     5678 1
    5874     5671     5672 1
    5875     5672     5673 1
    5876     5672     5676 1
    5877     5673     5674 1
    5878     5674     5675 1
    5879     5675     5676 1
    5880     5676     5677 1
    5881     5677     5805 1
    5882     5679     5680 1
    5883     5679     5699 1
    5884     5679     5700 1
    5885     5680     5681 1
    5886     5680     5691 1
    5887     5680     5701 1
    5888     5681     5682 1
    5889     5681     5702 1
    5890     5681     5703 1
    5891     5682     5683 1
    5892     5682     5704 1
    5893     5682     5705 1
    5894     5683     5684 1
    5895     5683     5706 1
    5896     5683     5707 1
    5897     5684     5685 1
    5898     5684     5708 1
    5899     5684     5709 1
    5900     5685     5686 1
    5901     5685     5710 1
    5902     5685     5711 1
    5903     5686     5687 1
    5904     5686     5712 1
    5905     5686     5713 1
    5906     5687     5688 1
    5907     5687     5714 1
    5908     5687     5715 1
    5909     5688     5689 1
    5910     5688     5716 1
    5911     5688     5717 1
    5912     5689     5690 1
    5913     5689     5718 1
    5914     5689     5719 1
    5915     5690     5720 1
    5916     5690     5721 1
    5917     5690     5722 1
    5918     5691     5692 1
    5919     5691     5723 1
    5920     5691     5724 1
    5921     5692     5693 1
    5922     5692     5725 1
    5923     5692     5726 1
    5924     5693     5694 1
    5925     5693     5727 1
    5926     5693     5728 1
    5927     5694     5695 1
    5928     5694     5729 1
    5929     5694     5730 1
    5930     5695     5696 1
    5931     5695     5731 1
    5932     5695     5732 1
    5933     5696     5697 1
    5934     5696     5733 1
    5935     5696     5734 1
    5936     5697     5698 1
    5937     5697     5735 1
    5938     5697     5736 1
    5939     5698     5737 1
    5940     5698     5738 1
    5941     5698     5739 1
    5942     5740     5741 1
    5943     5740     5760 1
    5944     5740     5761 1
    5945     5741     5742 1
    5946     5741     5752 1
    5947     5741     5762 1
    5948     5742     5743 1
    5949     5742     5763 1
    5950     5742     5764 1
    5951     5743     5744 1
    5952     5743     5765 1
    5953     5743     5766 1
    5954     5744     5745 1
    5955     5744     5767 1
    5956     5744     5768 1
    5957     5745     5746 1
    5958     5745     5769 1
    5959     5745     5770 1
    5960     5746     5747 1
    5961     5746     5771 1
    5962     5746     5772 1
    5963     5747     5748 1
    5964     5747     5773 1
    5965     5747     5774 1
    5966     5748     5749 1
    5967     5748     5775 1
    5968     5748     5776 1
    5969     5749     5750 1
    5970     5749     5777 1
    5971     5749     5778 1
    5972     5750     5751 1
    5973     5750     5779 1
    5974     5750     5780 1
    5975     5751     5781 1
    5976     5751     5782 1
    5977     5751     5783 1
    5978     5752     5753 1
    5979     5752     5784 1
    5980     5752     5785 1
    5981     5753     5754 1
    5982     5753     5786 1
    5983     5753     5787 1
    5984     5754     5755 1
    5985     5754     5788 1
    5986     5754     5789 1
    5987     5755     5756 1
    5988     5755     5790 1
    5989     5755     5791 1
    5990     5756     5757 1
    5991     5756     5792 1
    5992     5756     5793 1
    5993     5757     5758 1
    5994     5757     5794 1
    5995     5757     5795 1
    5996     5758     5759 1
    5997     5758     5796 1
    5998     5758     5797 1
    5999     5759     5798 1
    6000     5759     5799 1
    6001     5759     5800 1
    6002     5801     5802 1
    6003     5801     5808 1
    6004     5801     5824 1
    6005     5801     5885 1
    6006     5802     5803 1
    6007     5802     5806 1
    6008     5803     5804 1
    6009     5803     5807 1
    6010     5804     5805 1
    6011     5805     5806 1
    6012     5806     5812 1
    6013     5807     5808 1
    6014     5807     5811 1
    6015     5808     5809 1
    6016     5809     5810 1
    6017     5809     5813 1
    6018     5810     5811 1
    6019     5810     5816 1
    6020     5814     5815 1
    6021     5814     5822 1
    6022     5815     5816 1
    6023     5815     5823 1
    6024     5816     5817 1
    6025     5817     5818 1
    6026     5817     5821 1
    6027     5818     5819 1
    6028     5819     5820 1
    6029     5820     5821 1
    6030     5821     5822 1
    6031     5822     5950 1
    6032     5824     5825 1
    6033     5824     5844 1
    6034     5824     5845 1
    6035     5825     5826 1
    6036     5825     5836 1
    6037     5825     5846 1
    6038     5826     5827 1
    6039     5826     5847 1
    6040     5826     5848 1
    6041     5827     5828 1
    6042     5827     5849 1
    6043     5827     5850 1
    6044     5828     5829 1
    6045     5828     5851 1
    6046     5828     5852 1
    6047     5829     5830 1
    6048     5829     5853 1
    6049     5829     5854 1
    6050     5830     5831 1
    6051     5830     5855 1
    6052     5830     5856 1
    6053     5831     5832 1
    6054     5831     5857 1
    6055     5831     5858 1
    6056     5832     5833 1
    6057     5832     5859 1
    6058     5832     5860 1
    6059     5833     5834 1
    6060     5833     5861 1
    6061     5833     5862 1
    6062     5834     5835 1
    6063     5834     5863 1
    6064     5834     5864 1
    6065     5835     5865 1
    6066     5835     5866 1
    6067     5835     5867 1
    6068     5836     5837 1
    6069     5836     5868 1
    6070     5836     5869 1
    6071     5837     5838 1
    6072     5837     5870 1
    6073     5837     5871 1
    6074     5838     5839 1
    6075     5838     5872 1
    6076     5838     5873 1
    6077     5839     5840 1
    6078     5839     5874 1
    6079     5839     5875 1
    6080     5840     5841 1
    6081     5840     5876 1
    6082     5840     5877 1
    6083     5841     5842 1
    6084     5841     5878 1
    6085     5841     5879 1
    6086     5842     5843 1
    6087     5842     5880 1
    6088     5842     5881 1
    6089     5843     5882 1
    6090     5843     5883 1
    6091     5843     5884 1
    6092     5885     5886 1
    6093     5885     5905 1
    6094     5885     5906 1
    6095     5886     5887 1
    6096     5886     5897 1
    6097     5886     5907 1
    6098     5887     5888 1
    6099     5887     5908 1
    6100     5887     5909 1
    6101     5888     5889 1
    6102     5888     5910 1
    6103     5888     5911 1
    6104     5889     5890 1
    6105     5889     5912 1
    6106     5889     5913 1
    6107     5890     5891 1
    6108     5890     5914 1
    6109     5890     5915 1
    6110     5891     5892 1
    6111     5891     5916 1
    6112     5891     5917 1
    6113     5892     5893 1
    6114     5892     5918 1
    6115     5892     5919 1
    6116     5893     5894 1
    6117     5893     5920 1
    6118     5893     5921 1
    6119     5894     5895 1
    6120     5894     5922 1
    6121     5894     5923 1
    6122     5895     5896 1
    6123     5895     5924 1
    6124     5895     5925 1
    6125     5896     5926 1
    6126     5896     5927 1
    6127     5896     5928 1
    6128     5897     5898 1
    6129     5897     5929 1
    6130     5897     5930 1
    6131     5898     5899 1
    6132     5898     5931 1
    6133     5898     5932 1
    6134     5899     5900 1
    6135     5899     5933 1
    6136     5899     5934 1
    6137     5900     5901 1
    6138     5900     5935 1
    6139     5900     5936 1
    6140     5901     5902 1
    6141     5901     5937 1
    6142     5901     5938 1
    6143     5902     5903 1
    6144     5902     5939 1
    6145     5902     5940 1
    6146     5903     5904 1
    6147     5903     5941 1
    6148     5903     5942 1
    6149     5904     5943 1
    6150     5904     5944 1
    6151     5904     5945 1
    6152     5946     5947 1
    6153     5946     5953 1
    6154     5946     5969 1
    6155     5946     6030 1
    6156     5947     5948 1
    6157     5947     5951 1
    6158     5948     5949 1
    6159     5948     5952 1
    6160     5949     5950 1
    6161     5950     5951 1
    6162     5951     5957 1
    6163     5952     5953 1
    6164     5952     5956 1
    6165     5953     5954 1
    6166     5954     5955 1
    6167     5954     5958 1
    6168     5955     5956 1
    6169     5955     5961 1
    6170     5959     5960 1
    6171     5959     5967 1
    6172     5960     5961 1
    6173     5960     5968 1
    6174     5961     5962 1
    6175     5962     5963 1
    6176     5962     5966 1
    6177     5963     5964 1
    6178     5964     5965 1
    6179     5965     5966 1
    6180     5966     5967 1
    6181     5967     6095 1
    6182     5969     5970 1
    6183     5969     5989 1
    6184     5969     5990 1
    6185     5970     5971 1
    6186     5970     5981 1
    6187     5970     5991 1
    6188     5971     5972 1
    6189     5971     5992 1
    6190     5971     5993 1
    6191     5972     5973 1
    6192     5972     5994 1
    6193     5972     5995 1
    6194     5973     5974 1
    6195     5973     5996 1
    6196     5973     5997 1
    6197     5974     5975 1
    6198     5974     5998 1
    6199     5974     5999 1
    6200     5975     5976 1
    6201     5975     6000 1
    6202     5975     6001 1
    6203     5976     5977 1
    6204     5976     6002 1
    6205     5976     6003 1
    6206     5977     5978 1
    6207     5977     6004 1
    6208     5977     6005 1
    6209     5978     5979 1
    6210     5978     6006 1
    6211     5978     6007 1
    6212     5979     5980 1
    6213     5979     6008 1
    6214     5979     6009 1
    6215     5980     6010 1
    6216     5980     6011 1
    6217     5980     6012 1
    6218     5981     5982 1
    6219     5981     6013 1
    6220     5981     6014 1
    6221     5982     5983 1
    6222     5982     6015 1
    6223     5982     6016 1
    6224     5983     5984 1
    6225     5983     6017 1
    6226     5983     6018 1
    6227     5984     5985 1
    6228     5984     6019 1
    6229     5984     6020 1
    6230     5985     5986 1
    6231     5985     6021 1
    6232     5985     6022 1
    6233     5986     5987 1
    6234     5986     6023 1
    6235     5986     6024 1
    6236     5987     5988 1
    6237     5987     6025 1
    6238     5987     6026 1
    6239     5988     6027 1
    6240     5988     6028 1
    6241     5988     6029 1
    6242     6030     6031 1
    6243     6030     6050 1
    6244     6030     6051 1
    6245     6031     6032 1
    6246     6031     6042 1
    6247     6031     6052 1
    6248     6032     6033 1
    6249     6032     6053 1
    6250     6032     6054 1
    6251     6033     6034 1
    6252     6033     6055 1
    6253     6033     6056 1
    6254     6034     6035 1
    6255     6034     6057 1
    6256     6034     6058 1
    6257     6035     6036 1
    6258     6035     6059 1
    6259     6035     6060 1
    6260     6036     6037 1
    6261     6036     6061 1
    6262     6036     6062 1
    6263     6037     6038 1
    6264     6037     6063 1
    6265     6037     6064 1
    6266     6038     6039 1
    6267     6038     6065 1
    6268     6038     6066 1
    6269     6039     6040 1
    6270     6039     6067 1
    6271     6039     6068 1
    6272     6040     6041 1
    6273     6040     6069 1
    6274     6040     6070 1
    6275     6041     6071 1
    6276     6041     6072 1
    6277     6041     6073 1
    6278     6042     6043 1
    6279     6042     6074 1
    6280     6042     6075 1
    6281     6043     6044 1
    6282     6043     6076 1
    6283     6043     6077 1
    6284     6044     6045 1
    6285     6044     6078 1
    6286     6044     6079 1
    6287     6045     6046 1
    6288     6045     6080 1
    6289     6045     6081 1
    6290     6046     6047 1
    6291     6046     6082 1
    6292     6046     6083 1
    6293     6047     6048 1
    6294     6047     6084 1
    6295     6047     6085 1
    6296     6048     6049 1
    6297     6048     6086 1
    6298     6048     6087 1
    6299     6049     6088 1
    6300     6049     6089 1
    6301     6049     6090 1
    6302     6091     6092 1
    6303     6091     6098 1
    6304     6091     6114 1
    6305     6091     6175 1
    6306     6092     6093 1
    6307     6092     6096 1
    6308     6093     6094 1
    6309     6093     6097 1
    6310     6094     6095 1
    6311     6095     6096 1
    6312     6096     6102 1
    6313     6097     6098 1
    6314     6097     6101 1
    6315     6098     6099 1
    6316     6099     6100 1
    6317     6099     6103 1
    6318     6100     6101 1
    6319     6100     6106 1
    6320     6104     6105 1
    6321     6104     6112 1
    6322     6105     6106 1
    6323     6105     6113 1
    6324     6106     6107 1
    6325     6107     6108 1
    6326     6107     6111 1
    6327     6108     6109 1
    6328     6109     6110 1
    6329     6110     6111 1
    6330     6111     6112 1
    6331     6112     6240 1
    6332     6114     6115 1
    6333     6114     6134 1
    6334     6114     6135 1
    6335     6115     6116 1
    6336     6115     6126 1
    6337     6115     6136 1
    6338     6116     6117 1
    6339     6116     6137 1
    6340     6116     6138 1
    6341     6117     6118 1
    6342     6117     6139 1
    6343     6117     6140 1
    6344     6118     6119 1
    6345     6118     6141 1
    6346     6118     6142 1
    6347     6119     6120 1
    6348     6119     6143 1
    6349     6119     6144 1
    6350     6120     6121 1
    6351     6120     6145 1
    6352     6120     6146 1
    6353     6121     6122 1
    6354     6121     6147 1
    6355     6121     6148 1
    6356     6122     6123 1
    6357     6122     6149 1
    6358     6122     6150 1
    6359     6123     6124 1
    6360     6123     6151 1
    6361     6123     6152 1
    6362     6124     6125 1
    6363     6124     6153 1
    6364     6124     6154 1
    6365     6125     6155 1
    6366     6125     6156 1
    6367     6125     6157 1
    6368     6126     6127 1
    6369     6126     6158 1
    6370     6126     6159 1
    6371     6127     6128 1
    6372     6127     6160 1
    6373     6127     6161 1
    6374     6128     6129 1
    6375     6128     6162 1
    6376     6128     6163 1
    6377     6129     6130 1
    6378     6129     6164 1
    6379     6129     6165 1
    6380     6130     6131 1
    6381     6130     6166 1
    6382     6130     6167 1
    6383     6131     6132 1
    6384     6131     6168 1
    6385     6131     6169 1
    6386     6132     6133 1
    6387     6132     6170 1
    6388     6132     6171 1
    6389     6133     6172 1
    6390     6133     6173 1
    6391     6133     6174 1
    6392     6175     6176 1
    6393     6175     6195 1
    6394     6175     6196 1
    6395     6176     6177 1
    6396     6176     6187 1
    6397     6176     6197 1
    6398     6177     6178 1
    6399     6177     6198 1
    6400     6177     6199 1
    6401     6178     6179 1
    6402     6178     6200 1
    6403     6178     6201 1
    6404     6179     6180 1
    6405     6179     6202 1
    6406     6179     6203 1
    6407     6180     6181 1
    6408     6180     6204 1
    6409     6180     6205 1
    6410     6181     6182 1
    6411     6181     6206 1
    6412     6181     6207 1
    6413     6182     6183 1
    6414     6182     6208 1
    6415     6182     6209 1
    6416     6183     6184 1
    6417     6183     6210 1
    6418     6183     6211 1
    6419     6184     6185 1
    6420     6184     6212 1
    6421     6184     6213 1
    6422     6185     6186 1
    6423     6185     6214 1
    6424     6185     6215 1
    6425     6186     6216 1
    6426     6186     6217 1
    6427     6186     6218 1
    6428     6187     6188 1
    6429     6187     6219 1
    6430     6187     6220 1
    6431     6188     6189 1
    6432     6188     6221 1
    6433     6188     6222 1
    6434     6189     6190 1
    6435     6189     6223 1
    6436     6189     6224 1
    6437     6190     6191 1
    6438     6190     6225 1
    6439     6190     6226 1
    6440     6191     6192 1
    6441     6191     6227 1
    6442     6191     6228 1
    6443     6192     6193 1
    6444     6192     6229 1
    6445     6192     6230 1
    6446     6193     6194 1
    6447     6193     6231 1
    6448     6193     6232 1
    6449     6194     6233 1
    6450     6194     6234 1
    6451     6194     6235 1
    6452     6236     6237 1
    6453     6236     6243 1
    6454     6236     6259 1
    6455     6236     6320 1
    6456     6237     6238 1
    6457     6237     6241 1
    6458     6238     6239 1
    6459     6238     6242 1
    6460     6239     6240 1
    6461     6240     6241 1
    6462     6241     6247 1
    6463     6242     6243 1
    6464     6242     6246 1
    6465     6243     6244 1
    6466     6244     6245 1
    6467     6244     6248 1
    6468     6245     6246 1
    6469     6245     6251 1
    6470     6249     6250 1
    6471     6249     6257 1
    6472     6250     6251 1
    6473     6250     6258 1
    6474     6251     6252 1
    6475     6252     6253 1
    6476     6252     6256 1
    6477     6253     6254 1
    6478     6254     6255 1
    6479     6255     6256 1
    6480     6256     6257 1
    6481     6257     6385 1
    6482     6259     6260 1
    6483     6259     6279 1
    6484     6259     6280 1
    6485     6260     6261 1
    6486     6260     6271 1
    6487     6260     6281 1
    6488     6261     6262 1
    6489     6261     6282 1
    6490     6261     6283 1
    6491     6262     6263 1
    6492     6262     6284 1
    6493     6262     6285 1
    6494     6263     6264 1
    6495     6263     6286 1
    6496     6263     6287 1
    6497     6264     6265 1
    6498     6264     6288 1
    6499     6264     6289 1
    6500     6265     6266 1
    6501     6265     6290 1
    6502     6265     6291 1
    6503     6266     6267 1
    6504     6266     6292 1
    6505     6266     6293 1
    6506     6267     6268 1
    6507     6267     6294 1
    6508     6267     6295 1
    6509     6268     6269 1
    6510     6268     6296 1
    6511     6268     6297 1
    6512     6269     6270 1
    6513     6269     6298 1
    6514     6269     6299 1
    6515     6270     6300 1
    6516     6270     6301 1
    6517     6270     6302 1
    6518     6271     6272 1
    6519     6271     6303 1
    6520     6271     6304 1
    6521     6272     6273 1
    6522     6272     6305 1
    6523     6272     6306 1
    6524     6273     6274 1
    6525     6273     6307 1
    6526     6273     6308 1
    6527     6274     6275 1
    6528     6274     6309 1
    6529     6274     6310 1
    6530     6275     6276 1
    6531     6275     6311 1
    6532     6275     6312 1
    6533     6276     6277 1
    6534     6276     6313 1
    6535     6276     6314 1
    6536     6277     6278 1
    6537     6277     6315 1
    6538     6277     6316 1
    6539     6278     6317 1
    6540     6278     6318 1
    6541     6278     6319 1
    6542     6320     6321 1
    6543     6320     6340 1
    6544     6320     6341 1
    6545     6321     6322 1
    6546     6321     6332 1
    6547     6321     6342 1
    6548     6322     6323 1
    6549     6322     6343 1
    6550     6322     6344 1
    6551     6323     6324 1
    6552     6323     6345 1
    6553     6323     6346 1
    6554     6324     6325 1
    6555     6324     6347 1
    6556     6324     6348 1
    6557     6325     6326 1
    6558     6325     6349 1
    6559     6325     6350 1
    6560     6326     6327 1
    6561     6326     6351 1
    6562     6326     6352 1
    6563     6327     6328 1
    6564     6327     6353 1
    6565     6327     6354 1
    6566     6328     6329 1
    6567     6328     6355 1
    6568     6328     6356 1
    6569     6329     6330 1
    6570     6329     6357 1
    6571     6329     6358 1
    6572     6330     6331 1
    6573     6330     6359 1
    6574     6330     6360 1
    6575     6331     6361 1
    6576     6331     6362 1
    6577     6331     6363 1
    6578     6332     6333 1
    6579     6332     6364 1
    6580     6332     6365 1
    6581     6333     6334 1
    6582     6333     6366 1
    6583     6333     6367 1
    6584     6334     6335 1
    6585     6334     6368 1
    6586     6334     6369 1
    6587     6335     6336 1
    6588     6335     6370 1
    6589     6335     6371 1
    6590     6336     6337 1
    6591     6336     6372 1
    6592     6336     6373 1
    6593     6337     6338 1
    6594     6337     6374 1
    6595     6337     6375 1
    6596     6338     6339 1
    6597     6338     6376 1
    6598     6338     6377 1
    6599     6339     6378 1
    6600     6339     6379 1
    6601     6339     6380 1
    6602     6381     6382 1
    6603     6381     6388 1
    6604     6381     6404 1
    6605     6381     6465 1
    6606     6382     6383 1
    6607     6382     6386 1
    6608     6383     6384 1
    6609     6383     6387 1
    6610     6384     6385 1
    6611     6385     6386 1
    6612     6386     6392 1
    6613     6387     6388 1
    6614     6387     6391 1
    6615     6388     6389 1
    6616     6389     6390 1
    6617     6389     6393 1
    6618     6390     6391 1
    6619     6390     6396 1
    6620     6394     6395 1
    6621     6394     6402 1
    6622     6395     6396 1
    6623     6395     6403 1
    6624     6396     6397 1
    6625     6397     6398 1
    6626     6397     6401 1
    6627     6398     6399 1
    6628     6399     6400 1
    6629     6400     6401 1
    6630     6401     6402 1
    6631     6402     6530 1
    6632     6404     6405 1
    6633     6404     6424 1
    6634     6404     6425 1
    6635     6405     6406 1
    6636     6405     6416 1
    6637     6405     6426 1
    6638     6406     6407 1
    6639     6406     6427 1
    6640     6406     6428 1
    6641     6407     6408 1
    6642     6407     6429 1
    6643     6407     6430 1
    6644     6408     6409 1
    6645     6408     6431 1
    6646     6408     6432 1
    6647     6409     6410 1
    6648     6409     6433 1
    6649     6409     6434 1
    6650     6410     6411 1
    6651     6410     6435 1
    6652     6410     6436 1
    6653     6411     6412 1
    6654     6411     6437 1
    6655     6411     6438 1
    6656     6412     6413 1
    6657     6412     6439 1
    6658     6412     6440 1
    6659     6413     6414 1
    6660     6413     6441 1
    6661     6413     6442 1
    6662     6414     6415 1
    6663     6414     6443 1
    6664     6414     6444 1
    6665     6415     6445 1
    6666     6415     6446 1
    6667     6415     6447 1
    6668     6416     6417 1
    6669     6416     6448 1
    6670     6416     6449 1
    6671     6417     6418 1
    6672     6417     6450 1
    6673     6417     6451 1
    6674     6418     6419 1
    6675     6418     6452 1
    6676     6418     6453 1
    6677     6419     6420 1
    6678     6419     6454 1
    6679     6419     6455 1
    6680     6420     6421 1
    6681     6420     6456 1
    6682     6420     6457 1
    6683     6421     6422 1
    6684     6421     6458 1
    6685     6421     6459 1
    6686     6422     6423 1
    6687     6422     6460 1
    6688     6422     6461 1
    6689     6423     6462 1
    6690     6423     6463 1
    6691     6423     6464 1
    6692     6465     6466 1
    6693     6465     6485 1
    6694     6465     6486 1
    6695     6466     6467 1
    6696     6466     6477 1
    6697     6466     6487 1
    6698     6467     6468 1
    6699     6467     6488 1
    6700     6467     6489 1
    6701     6468     6469 1
    6702     6468     6490 1
    6703     6468     6491 1
    6704     6469     6470 1
    6705     6469     6492 1
    6706     6469     6493 1
    6707     6470     6471 1
    6708     6470     6494 1
    6709     6470     6495 1
    6710     6471     6472 1
    6711     6471     6496 1
    6712     6471     6497 1
    6713     6472     6473 1
    6714     6472     6498 1
    6715     6472     6499 1
    6716     6473     6474 1
    6717     6473     6500 1
    6718     6473     6501 1
    6719     6474     6475 1
    6720     6474     6502 1
    6721     6474     6503 1
    6722     6475     6476 1
    6723     6475     6504 1
    6724     6475     6505 1
    6725     6476     6506 1
    6726     6476     6507 1
    6727     6476     6508 1
    6728     6477     6478 1
    6729     6477     6509 1
    6730     6477     6510 1
    6731     6478     6479 1
    6732     6478     6511 1
    6733     6478     6512 1
    6734     6479     6480 1
    6735     6479     6513 1
    6736     6479     6514 1
    6737     6480     6481 1
    6738     6480     6515 1
    6739     6480     6516 1
    6740     6481     6482 1
    6741     6481     6517 1
    6742     6481     6518 1
    6743     6482     6483 1
    6744     6482     6519 1
    6745     6482     6520 1
    6746     6483     6484 1
    6747     6483     6521 1
    6748     6483     6522 1
    6749     6484     6523 1
    6750     6484     6524 1
    6751     6484     6525 1
    6752     6526     6527 1
    6753     6526     6533 1
    6754     6526     6549 1
    6755     6526     6610 1
    6756     6527     6528 1
    6757     6527     6531 1
    6758     6528     6529 1
    6759     6528     6532 1
    6760     6529     6530 1
    6761     6530     6531 1
    6762     6531     6537 1
    6763     6532     6533 1
    6764     6532     6536 1
    6765     6533     6534 1
    6766     6534     6535 1
    6767     6534     6538 1
    6768     6535     6536 1
    6769     6535     6541 1
    6770     6539     6540 1
    6771     6539     6547 1
    6772     6540     6541 1
    6773     6540     6548 1
    6774     6541     6542 1
    6775     6542     6543 1
    6776     6542     6546 1
    6777     6543     6544 1
    6778     6544     6545 1
    6779     6545     6546 1
    6780     6546     6547 1
    6781     6547     6675 1
    6782     6549     6550 1
    6783     6549     6569 1
    6784     6549     6570 1
    6785     6550     6551 1
    6786     6550     6561 1
    6787     6550     6571 1
    6788     6551     6552 1
    6789     6551     6572 1
    6790     6551     6573 1
    6791     6552     6553 1
    6792     6552     6574 1
    6793     6552     6575 1
    6794     6553     6554 1
    6795     6553     6576 1
    6796     6553     6577 1
    6797     6554     6555 1
    6798     6554     6578 1
    6799     6554     6579 1
    6800     6555     6556 1
    6801     6555     6580 1
    6802     6555     6581 1
    6803     6556     6557 1
    6804     6556     6582 1
    6805     6556     6583 1
    6806     6557     6558 1
    6807     6557     6584 1
    6808     6557     6585 1
    6809     6558     6559 1
    6810     6558     6586 1
    6811     6558     6587 1
    6812     6559     6560 1
    6813     6559     6588 1
    6814     6559     6589 1
    6815     6560     6590 1
    6816     6560     6591 1
    6817     6560     6592 1
    6818     6561     6562 1
    6819     6561     6593 1
    6820     6561     6594 1
    6821     6562     6563 1
    6822     6562     6595 1
    6823     6562     6596 1
    6824     6563     6564 1
    6825     6563     6597 1
    6826     6563     6598 1
    6827     6564     6565 1
    6828     6564     6599 1
    6829     6564     6600 1
    6830     6565     6566 1
    6831     6565     6601 1
    6832     6565     6602 1
    6833     6566     6567 1
    6834     6566     6603 1
    6835     6566     6604 1
    6836     6567     6568 1
    6837     6567     6605 1
    6838     6567     6606 1
    6839     6568     6607 1
    6840     6568     6608 1
    6841     6568     6609 1
    6842     6610     6611 1
    6843     6610     6630 1
    6844     6610     6631 1
    6845     6611     6612 1
    6846     6611     6622 1
    6847     6611     6632 1
    6848     6612     6613 1
    6849     6612     6633 1
    6850     6612     6634 1
    6851     6613     6614 1
    6852     6613     6635 1
    6853     6613     6636 1
    6854     6614     6615 1
    6855     6614     6637 1
    6856     6614     6638 1
    6857     6615     6616 1
    6858     6615     6639 1
    6859     6615     6640 1
    6860     6616     6617 1
    6861     6616     6641 1
    6862     6616     6642 1
    6863     6617     6618 1
    6864     6617     6643 1
    6865     6617     6644 1
    6866     6618     6619 1
    6867     6618     6645 1
    6868     6618     6646 1
    6869     6619     6620 1
    6870     6619     6647 1
    6871     6619     6648 1
    6872     6620     6621 1
    6873     6620     6649 1
    6874     6620     6650 1
    6875     6621     6651 1
    6876     6621     6652 1
    6877     6621     6653 1
    6878     6622     6623 1
    6879     6622     6654 1
    6880     6622     6655 1
    6881     6623     6624 1
    6882     6623     6656 1
    6883     6623     6657 1
    6884     6624     6625 1
    6885     6624     6658 1
    6886     6624     6659 1
    6887     6625     6626 1
    6888     6625     6660 1
    6889     6625     6661 1
    6890     6626     6627 1
    6891     6626     6662 1
    6892     6626     6663 1
    6893     6627     6628 1
    6894     6627     6664 1
    6895     6627     6665 1
    6896     6628     6629 1
    6897     6628     6666 1
    6898     6628     6667 1
    6899     6629     6668 1
    6900     6629     6669 1
    6901     6629     6670 1
    6902     6671     6672 1
    6903     6671     6678 1
    6904     6671     6694 1
    6905     6671     6755 1
    6906     6672     6673 1
    6907     6672     6676 1
    6908     6673     6674 1
    6909     6673     6677 1
    6910     6674     6675 1
    6911     6675     6676 1
    6912     6676     6682 1
    6913     6677     6678 1
    6914     6677     6681 1
    6915     6678     6679 1
    6916     6679     6680 1
    6917     6679     6683 1
    6918     6680     6681 1
    6919     6680     6686 1
    6920     6684     6685 1
    6921     6684     6692 1
    6922     6685     6686 1
    6923     6685     6693 1
    6924     6686     6687 1
    6925     6687     6688 1
    6926     6687     6691 1
    6927     6688     6689 1
    6928     6689     6690 1
    6929     6690     6691 1
    6930     6691     6692 1
    6931     6692     6820 1
    6932     6694     6695 1
    6933     6694     6714 1
    6934     6694     6715 1
    6935     6695     6696 1
    6936     6695     6706 1
    6937     6695     6716 1
    6938     6696     6697 1
    6939     6696     6717 1
    6940     6696     6718 1
    6941     6697     6698 1
    6942     6697     6719 1
    6943     6697     6720 1
    6944     6698     6699 1
    6945     6698     6721 1
    6946     6698     6722 1
    6947     6699     6700 1
    6948     6699     6723 1
    6949     6699     6724 1
    6950     6700     6701 1
    6951     6700     6725 1
    6952     6700     6726 1
    6953     6701     6702 1
    6954     6701     6727 1
    6955     6701     6728 1
    6956     6702     6703 1
    6957     6702     6729 1
    6958     6702     6730 1
    6959     6703     6704 1
    6960     6703     6731 1
    6961     6703     6732 1
    6962     6704     6705 1
    6963     6704     6733 1
    6964     6704     6734 1
    6965     6705     6735 1
    6966     6705     6736 1
    6967     6705     6737 1
    6968     6706     6707 1
    6969     6706     6738 1
    6970     6706     6739 1
    6971     6707     6708 1
    6972     6707     6740 1
    6973     6707     6741 1
    6974     6708     6709 1
    6975     6708     6742 1
    6976     6708     6743 1
    6977     6709     6710 1
    6978     6709     6744 1
    6979     6709     6745 1
    6980     6710     6711 1
    6981     6710     6746 1
    6982     6710     6747 1
    6983     6711     6712 1
    6984     6711     6748 1
    6985     6711     6749 1
    6986     6712     6713 1
    6987     6712     6750 1
    6988     6712     6751 1
    6989     6713     6752 1
    6990     6713     6753 1
    6991     6713     6754 1
    6992     6755     6756 1
    6993     6755     6775 1
    6994     6755     6776 1
    6995     6756     6757 1
    6996     6756     6767 1
    6997     6756     6777 1
    6998     6757     6758 1
    6999     6757     6778 1
    7000     6757     6779 1
    7001     6758     6759 1
    7002     6758     6780 1
    7003     6758     6781 1
    7004     6759     6760 1
    7005     6759     6782 1
    7006     6759     6783 1
    7007     6760     6761 1
    7008     6760     6784 1
    7009     6760     6785 1
    7010     6761     6762 1
    7011     6761     6786 1
    7012     6761     6787 1
    7013     6762     6763 1
    7014     6762     6788 1
    7015     6762     6789 1
    7016     6763     6764 1
    7017     6763     6790 1
    7018     6763     6791 1
    7019     6764     6765 1
    7020     6764     6792 1
    7021     6764     6793 1
    7022     6765     6766 1
    7023     6765     6794 1
    7024     6765     6795 1
    7025     6766     6796 1
    7026     6766     6797 1
    7027     6766     6798 1
    7028     6767     6768 1
    7029     6767     6799 1
    7030     6767     6800 1
    7031     6768     6769 1
    7032     6768     6801 1
    7033     6768     6802 1
    7034     6769     6770 1
    7035     6769     6803 1
    7036     6769     6804 1
    7037     6770     6771 1
    7038     6770     6805 1
    7039     6770     6806 1
    7040     6771     6772 1
    7041     6771     6807 1
    7042     6771     6808 1
    7043     6772     6773 1
    7044     6772     6809 1
    7045     6772     6810 1
    7046     6773     6774 1
    7047     6773     6811 1
    7048     6773     6812 1
    7049     6774     6813 1
    7050     6774     6814 1
    7051     6774     6815 1
    7052     6816     6817 1
    7053     6816     6823 1
    7054     6816     6839 1
    7055     6816     6900 1
    7056     6817     6818 1
    7057     6817     6821 1
    7058     6818     6819 1
    7059     6818     6822 1
    7060     6819     6820 1
    7061     6820     6821 1
    7062     6821     6827 1
    7063     6822     6823 1
    7064     6822     6826 1
    7065     6823     6824 1
    7066     6824     6825 1
    7067     6824     6828 1
    7068     6825     6826 1
    7069     6825     6831 1
    7070     6829     6830 1
    7071     6829     6837 1
    7072     6830     6831 1
    7073     6830     6838 1
    7074     6831     6832 1
    7075     6832     6833 1
    7076     6832     6836 1
    7077     6833     6834 1
    7078     6834     6835 1
    7079     6835     6836 1
    7080     6836     6837 1
    7081     6837     6965 1
    7082     6839     6840 1
    7083     6839     6859 1
    7084     6839     6860 1
    7085     6840     6841 1
    7086     6840     6851 1
    7087     6840     6861 1
    7088     6841     6842 1
    7089     6841     6862 1
    7090     6841     6863 1
    7091     6842     6843 1
    7092     6842     6864 1
    7093     6842     6865 1
    7094     6843     6844 1
    7095     6843     6866 1
    7096     6843     6867 1
    7097     6844     6845 1
    7098     6844     6868 1
    7099     6844     6869 1
    7100     6845     6846 1
    7101     6845     6870 1
    7102     6845     6871 1
    7103     6846     6847 1
    7104     6846     6872 1
    7105     6846     6873 1
    7106     6847     6848 1
    7107     6847     6874 1
    7108     6847     6875 1
    7109     6848     6849 1
    7110     6848     6876 1
    7111     6848     6877 1
    7112     6849     6850 1
    7113     6849     6878 1
    7114     6849     6879 1
    7115     6850     6880 1
    7116     6850     6881 1
    7117     6850     6882 1
    7118     6851     6852 1
    7119     6851     6883 1
    7120     6851     6884 1
    7121     6852     6853 1
    7122     6852     6885 1
    7123     6852     6886 1
    7124     6853     6854 1
    7125     6853     6887 1
    7126     6853     6888 1
    7127     6854     6855 1
    7128     6854     6889 1
    7129     6854     6890 1
    7130     6855     6856 1
    7131     6855     6891 1
    7132     6855     6892 1
    7133     6856     6857 1
    7134     6856     6893 1
    7135     6856     6894 1
    7136     6857     6858 1
    7137     6857     6895 1
    7138     6857     6896 1
    7139     6858     6897 1
    7140     6858     6898 1
    7141     6858     6899 1
    7142     6900     6901 1
    7143     6900     6920 1
    7144     6900     6921 1
    7145     6901     6902 1
    7146     6901     6912 1
    7147     6901     6922 1
    7148     6902     6903 1
    7149     6902     6923 1
    7150     6902     6924 1
    7151     6903     6904 1
    7152     6903     6925 1
    7153     6903     6926 1
    7154     6904     6905 1
    7155     6904     6927 1
    7156     6904     6928 1
    7157     6905     6906 1
    7158     6905     6929 1
    7159     6905     6930 1
    7160     6906     6907 1
    7161     6906     6931 1
    7162     6906     6932 1
    7163     6907     6908 1
    7164     6907     6933 1
    7165     6907     6934 1
    7166     6908     6909 1
    7167     6908     6935 1
    7168     6908     6936 1
    7169     6909     6910 1
    7170     6909     6937 1
    7171     6909     6938 1
    7172     6910     6911 1
    7173     6910     6939 1
    7174     6910     6940 1
    7175     6911     6941 1
    7176     6911     6942 1
    7177     6911     6943 1
    7178     6912     6913 1
    7179     6912     6944 1
    7180     6912     6945 1
    7181     6913     6914 1
    7182     6913     6946 1
    7183     6913     6947 1
    7184     6914     6915 1
    7185     6914     6948 1
    7186     6914     6949 1
    7187     6915     6916 1
    7188     6915     6950 1
    7189     6915     6951 1
    7190     6916     6917 1
    7191     6916     6952 1
    7192     6916     6953 1
    7193     6917     6918 1
    7194     6917     6954 1
    7195     6917     6955 1
    7196     6918     6919 1
    7197     6918     6956 1
    7198     6918     6957 1
    7199     6919     6958 1
    7200     6919     6959 1
    7201     6919     6960 1
    7202     6961     6962 1
    7203     6961     6968 1
    7204     6961     6984 1
    7205     6961     7045 1
    7206     6962     6963 1
    7207     6962     6966 1
    7208     6963     6964 1
    7209     6963     6967 1
    7210     6964     6965 1
    7211     6965     6966 1
    7212     6966     6972 1
    7213     6967     6968 1
    7214     6967     6971 1
    7215     6968     6969 1
    7216     6969     6970 1
    7217     6969     6973 1
    7218     6970     6971 1
    7219     6970     6976 1
    7220     6974     6975 1
    7221     6974     6982 1
    7222     6975     6976 1
    7223     6975     6983 1
    7224     6976     6977 1
    7225     6977     6978 1
    7226     6977     6981 1
    7227     6978     6979 1
    7228     6979     6980 1
    7229     6980     6981 1
    7230     6981     6982 1
    7231     6982     7110 1
    7232     6984     6985 1
    7233     6984     7004 1
    7234     6984     7005 1
    7235     6985     6986 1
    7236     6985     6996 1
    7237     6985     7006 1
    7238     6986     6987 1
    7239     6986     7007 1
    7240     6986     7008 1
    7241     6987     6988 1
    7242     6987     7009 1
    7243     6987     7010 1
    7244     6988     6989 1
    7245     6988     7011 1
    7246     6988     7012 1
    7247     6989     6990 1
    7248     6989     7013 1
    7249     6989     7014 1
    7250     6990     6991 1
    7251     6990     7015 1
    7252     6990     7016 1
    7253     6991     6992 1
    7254     6991     7017 1
    7255     6991     7018 1
    7256     6992     6993 1
    7257     6992     7019 1
    7258     6992     7020 1
    7259     6993     6994 1
    7260     6993     7021 1
    7261     6993     7022 1
    7262     6994     6995 1
    7263     6994     7023 1
    7264     6994     7024 1
    7265     6995     7025 1
    7266     6995     7026 1
    7267     6995     7027 1
    7268     6996     6997 1
    7269     6996     7028 1
    7270     6996     7029 1
    7271     6997     6998 1
    7272     6997     7030 1
    7273     6997     7031 1
    7274     6998     6999 1
    7275     6998     7032 1
    7276     6998     7033 1
    7277     6999     7000 1
    7278     6999     7034 1
    7279     6999     7035 1
    7280     7000     7001 1
    7281     7000     7036 1
    7282     7000     7037 1
    7283     7001     7002 1
    7284     7001     7038 1
    7285     7001     7039 1
    7286     7002     7003 1
    7287     7002     7040 1
    7288     7002     7041 1
    7289     7003     7042 1
    7290     7003     7043 1
    7291     7003     7044 1
    7292     7045     7046 1
    7293     7045     7065 1
    7294     7045     7066 1
    7295     7046     7047 1
    7296     7046     7057 1
    7297     7046     7067 1
    7298     7047     7048 1
    7299     7047     7068 1
    7300     7047     7069 1
    7301     7048     7049 1
    7302     7048     7070 1
    7303     7048     7071 1
    7304     7049     7050 1
    7305     7049     7072 1
    7306     7049     7073 1
    7307     7050     7051 1
    7308     7050     7074 1
    7309     7050     7075 1
    7310     7051     7052 1
    7311     7051     7076 1
    7312     7051     7077 1
    7313     7052     7053 1
    7314     7052     7078 1
    7315     7052     7079 1
    7316     7053     7054 1
    7317     7053     7080 1
    7318     7053     7081 1
    7319     7054     7055 1
    7320     7054     7082 1
    7321     7054     7083 1
    7322     7055     7056 1
    7323     7055     7084 1
    7324     7055     7085 1
    7325     7056     7086 1
    7326     7056     7087 1
    7327     7056     7088 1
    7328     7057     7058 1
    7329     7057     7089 1
    7330     7057     7090 1
    7331     7058     7059 1
    7332     7058     7091 1
    7333     7058     7092 1
    7334     7059     7060 1
    7335     7059     7093 1
    7336     7059     7094 1
    7337     7060     7061 1
    7338     7060     7095 1
    7339     7060     7096 1
    7340     7061     7062 1
    7341     7061     7097 1
    7342     7061     7098 1
    7343     7062     7063 1
    7344     7062     7099 1
    7345     7062     7100 1
    7346     7063     7064 1
    7347     7063     7101 1
    7348     7063     7102 1
    7349     7064     7103 1
    7350     7064     7104 1
    7351     7064     7105 1
    7352     7106     7107 1
    7353     7106     7113 1
    7354     7106     7129 1
    7355     7106     7190 1
    7356     7107     7108 1
    7357     7107     7111 1
    7358     7108     7109 1
    7359     7108     7112 1
    7360     7109     7110 1
    7361     7110     7111 1
    7362     7111     7117 1
    7363     7112     7113 1
    7364     7112     7116 1
    7365     7113     7114 1
    7366     7114     7115 1
    7367     7114     7118 1
    7368     7115     7116 1
    7369     7115     7121 1
    7370     7119     7120 1
    7371     7119     7127 1
    7372     7120     7121 1
    7373     7120     7128 1
    7374     7121     7122 1
    7375     7122     7123 1
    7376     7122     7126 1
    7377     7123     7124 1
    7378     7124     7125 1
    7379     7125     7126 1
    7380     7126     7127 1
    7381     7127     7255 1
    7382     7129     7130 1
    7383     7129     7149 1
    7384     7129     7150 1
    7385     7130     7131 1
    7386     7130     7141 1
    7387     7130     7151 1
    7388     7131     7132 1
    7389     7131     7152 1
    7390     7131     7153 1
    7391     7132     7133 1
    7392     7132     7154 1
    7393     7132     7155 1
    7394     7133     7134 1
    7395     7133     7156 1
    7396     7133     7157 1
    7397     7134     7135 1
    7398     7134     7158 1
    7399     7134     7159 1
    7400     7135     7136 1
    7401     7135     7160 1
    7402     7135     7161 1
    7403     7136     7137 1
    7404     7136     7162 1
    7405     7136     7163 1
    7406     7137     7138 1
    7407     7137     7164 1
    7408     7137     7165 1
    7409     7138     7139 1
    7410     7138     7166 1
    7411     7138     7167 1
    7412     7139     7140 1
    7413     7139     7168 1
    7414     7139     7169 1
    7415     7140     7170 1
    7416     7140     7171 1
    7417     7140     7172 1
    7418     7141     7142 1
    7419     7141     7173 1
    7420     7141     7174 1
    7421     7142     7143 1
    7422     7142     7175 1
    7423     7142     7176 1
    7424     7143     7144 1
    7425     7143     7177 1
    7426     7143     7178 1
    7427     7144     7145 1
    7428     7144     7179 1
    7429     7144     7180 1
    7430     7145     7146 1
    7431     7145     7181 1
    7432     7145     7182 1
    7433     7146     7147 1
    7434     7146     7183 1
    7435     7146     7184 1
    7436     7147     7148 1
    7437     7147     7185 1
    7438     7147     7186 1
    7439     7148     7187 1
    7440     7148     7188 1
    7441     7148     7189 1
    7442     7190     7191 1
    7443     7190     7210 1
    7444     7190     7211 1
    7445     7191     7192 1
    7446     7191     7202 1
    7447     7191     7212 1
    7448     7192     7193 1
    7449     7192     7213 1
    7450     7192     7214 1
    7451     7193     7194 1
    7452     7193     7215 1
    7453     7193     7216 1
    7454     7194     7195 1
    7455     7194     7217 1
    7456     7194     7218 1
    7457     7195     7196 1
    7458     7195     7219 1
    7459     7195     7220 1
    7460     7196     7197 1
    7461     7196     7221 1
    7462     7196     7222 1
    7463     7197     7198 1
    7464     7197     7223 1
    7465     7197     7224 1
    7466     7198     7199 1
    7467     7198     7225 1
    7468     7198     7226 1
    7469     7199     7200 1
    7470     7199     7227 1
    7471     7199     7228 1
    7472     7200     7201 1
    7473     7200     7229 1
    7474     7200     7230 1
    7475     7201     7231 1
    7476     7201     7232 1
    7477     7201     7233 1
    7478     7202     7203 1
    7479     7202     7234 1
    7480     7202     7235 1
    7481     7203     7204 1
    7482     7203     7236 1
    7483     7203     7237 1
    7484     7204     7205 1
    7485     7204     7238 1
    7486     7204     7239 1
    7487     7205     7206 1
    7488     7205     7240 1
    7489     7205     7241 1
    7490     7206     7207 1
    7491     7206     7242 1
    7492     7206     7243 1
    7493     7207     7208 1
    7494     7207     7244 1
    7495     7207     7245 1
    7496     7208     7209 1
    7497     7208     7246 1
    7498     7208     7247 1
    7499     7209     7248 1
    7500     7209     7249 1
    7501     7209     7250 1
    7502     7251     7252 1
    7503     7251     7258 1
    7504     7251     7274 1
    7505     7251     7335 1
    7506     7252     7253 1
    7507     7252     7256 1
    7508     7253     7254 1
    7509     7253     7257 1
    7510     7254     7255 1
    7511     7255     7256 1
    7512     7256     7262 1
    7513     7257     7258 1
    7514     7257     7261 1
    7515     7258     7259 1
    7516     7259     7260 1
    7517     7259     7263 1
    7518     7260     7261 1
    7519     7260     7266 1
    7520     7264     7265 1
    7521     7264     7272 1
    7522     7265     7266 1
    7523     7265     7273 1
    7524     7266     7267 1
    7525     7267     7268 1
    7526     7267     7271 1
    7527     7268     7269 1
    7528     7269     7270 1
    7529     7270     7271 1
    7530     7271     7272 1
    7531     7272     7400 1
    7532     7274     7275 1
    7533     7274     7294 1
    7534     7274     7295 1
    7535     7275     7276 1
    7536     7275     7286 1
    7537     7275     7296 1
    7538     7276     7277 1
    7539     7276     7297 1
    7540     7276     7298 1
    7541     7277     7278 1
    7542     7277     7299 1
    7543     7277     7300 1
    7544     7278     7279 1
    7545     7278     7301 1
    7546     7278     7302 1
    7547     7279     7280 1
    7548     7279     7303 1
    7549     7279     7304 1
    7550     7280     7281 1
    7551     7280     7305 1
    7552     7280     7306 1
    7553     7281     7282 1
    7554     7281     7307 1
    7555     7281     7308 1
    7556     7282     7283 1
    7557     7282     7309 1
    7558     7282     7310 1
    7559     7283     7284 1
    7560     7283     7311 1
    7561     7283     7312 1
    7562     7284     7285 1
    7563     7284     7313 1
    7564     7284     7314 1
    7565     7285     7315 1
    7566     7285     7316 1
    7567     7285     7317 1
    7568     7286     7287 1
    7569     7286     7318 1
    7570     7286     7319 1
    7571     7287     7288 1
    7572     7287     7320 1
    7573     7287     7321 1
    7574     7288     7289 1
    7575     7288     7322 1
    7576     7288     7323 1
    7577     7289     7290 1
    7578     7289     7324 1
    7579     7289     7325 1
    7580     7290     7291 1
    7581     7290     7326 1
    7582     7290     7327 1
    7583     7291     7292 1
    7584     7291     7328 1
    7585     7291     7329 1
    7586     7292     7293 1
    7587     7292     7330 1
    7588     7292     7331 1
    7589     7293     7332 1
    7590     7293     7333 1
    7591     7293     7334 1
    7592     7335     7336 1
    7593     7335     7355 1
    7594     7335     7356 1
    7595     7336     7337 1
    7596     7336     7347 1
    7597     7336     7357 1
    7598     7337     7338 1
    7599     7337     7358 1
    7600     7337     7359 1
    7601     7338     7339 1
    7602     7338     7360 1
    7603     7338     7361 1
    7604     7339     7340 1
    7605     7339     7362 1
    7606     7339     7363 1
    7607     7340     7341 1
    7608     7340     7364 1
    7609     7340     7365 1
    7610     7341     7342 1
    7611     7341     7366 1
    7612     7341     7367 1
    7613     7342     7343 1
    7614     7342     7368 1
    7615     7342     7369 1
    7616     7343     7344 1
    7617     7343     7370 1
    7618     7343     7371 1
    7619     7344     7345 1
    7620     7344     7372 1
    7621     7344     7373 1
    7622     7345     7346 1
    7623     7345     7374 1
    7624     7345     7375 1
    7625     7346     7376 1
    7626     7346     7377 1
    7627     7346     7378 1
    7628     7347     7348 1
    7629     7347     7379 1
    7630     7347     7380 1
    7631     7348     7349 1
    7632     7348     7381 1
    7633     7348     7382 1
    7634     7349     7350 1
    7635     7349     7383 1
    7636     7349     7384 1
    7637     7350     7351 1
    7638     7350     7385 1
    7639     7350     7386 1
    7640     7351     7352 1
    7641     7351     7387 1
    7642     7351     7388 1
    7643     7352     7353 1
    7644     7352     7389 1
    7645     7352     7390 1
    7646     7353     7354 1
    7647     7353     7391 1
    7648     7353     7392 1
    7649     7354     7393 1
    7650     7354     7394 1
    7651     7354     7395 1
    7652     7396     7397 1
    7653     7396     7403 1
    7654     7396     7419 1
    7655     7396     7480 1
    7656     7397     7398 1
    7657     7397     7401 1
    7658     7398     7399 1
    7659     7398     7402 1
    7660     7399     7400 1
    7661     7400     7401 1
    7662     7401     7407 1
    7663     7402     7403 1
    7664     7402     7406 1
    7665     7403     7404 1
    7666     7404     7405 1
    7667     7404     7408 1
    7668     7405     7406 1
    7669     7405     7411 1
    7670     7409     7410 1
    7671     7409     7417 1
    7672     7410     7411 1
    7673     7410     7418 1
    7674     7411     7412 1
    7675     7412     7413 1
    7676     7412     7416 1
    7677     7413     7414 1
    7678     7414     7415 1
    7679     7415     7416 1
    7680     7416     7417 1
    7681     7417     7545 1
    7682     7419     7420 1
    7683     7419     7439 1
    7684     7419     7440 1
    7685     7420     7421 1
    7686     7420     7431 1
    7687     7420     7441 1
    7688     7421     7422 1
    7689     7421     7442 1
    7690     7421     7443 1
    7691     7422     7423 1
    7692     7422     7444 1
    7693     7422     7445 1
    7694     7423     7424 1
    7695     7423     7446 1
    7696     7423     7447 1
    7697     7424     7425 1
    7698     7424     7448 1
    7699     7424     7449 1
    7700     7425     7426 1
    7701     7425     7450 1
    7702     7425     7451 1
    7703     7426     7427 1
    7704     7426     7452 1
    7705     7426     7453 1
    7706     7427     7428 1
    7707     7427     7454 1
    7708     7427     7455 1
    7709     7428     7429 1
    7710     7428     7456 1
    7711     7428     7457 1
    7712     7429     7430 1
    7713     7429     7458 1
    7714     7429     7459 1
    7715     7430     7460 1
    7716     7430     7461 1
    7717     7430     7462 1
    7718     7431     7432 1
    7719     7431     7463 1
    7720     7431     7464 1
    7721     7432     7433 1
    7722     7432     7465 1
    7723     7432     7466 1
    7724     7433     7434 1
    7725     7433     7467 1
    7726     7433     7468 1
    7727     7434     7435 1
    7728     7434     7469 1
    7729     7434     7470 1
    7730     7435     7436 1
    7731     7435     7471 1
    7732     7435     7472 1
    7733     7436     7437 1
    7734     7436     7473 1
    7735     7436     7474 1
    7736     7437     7438 1
    7737     7437     7475 1
    7738     7437     7476 1
    7739     7438     7477 1
    7740     7438     7478 1
    7741     7438     7479 1
    7742     7480     7481 1
    7743     7480     7500 1
    7744     7480     7501 1
    7745     7481     7482 1
    7746     7481     7492 1
    7747     7481     7502 1
    7748     7482     7483 1
    7749     7482     7503 1
    7750     7482     7504 1
    7751     7483     7484 1
    7752     7483     7505 1
    7753     7483     7506 1
    7754     7484     7485 1
    7755     7484     7507 1
    7756     7484     7508 1
    7757     7485     7486 1
    7758     7485     7509 1
    7759     7485     7510 1
    7760     7486     7487 1
    7761     7486     7511 1
    7762     7486     7512 1
    7763     7487     7488 1
    7764     7487     7513 1
    7765     7487     7514 1
    7766     7488     7489 1
    7767     7488     7515 1
    7768     7488     7516 1
    7769     7489     7490 1
    7770     7489     7517 1
    7771     7489     7518 1
    7772     7490     7491 1
    7773     7490     7519 1
    7774     7490     7520 1
    7775     7491     7521 1
    7776     7491     7522 1
    7777     7491     7523 1
    7778     7492     7493 1
    7779     7492     7524 1
    7780     7492     7525 1
    7781     7493     7494 1
    7782     7493     7526 1
    7783     7493     7527 1
    7784     7494     7495 1
    7785     7494     7528 1
    7786     7494     7529 1
    7787     7495     7496 1
    7788     7495     7530 1
    7789     7495     7531 1
    7790     7496     7497 1
    7791     7496     7532 1
    7792     7496     7533 1
    7793     7497     7498 1
    7794     7497     7534 1
    7795     7497     7535 1
    7796     7498     7499 1
    7797     7498     7536 1
    7798     7498     7537 1
    7799     7499     7538 1
    7800     7499     7539 1
    7801     7499     7540 1
    7802     7541     7542 1
    7803     7541     7548 1
    7804     7541     7564 1
    7805     7541     7625 1
    7806     7542     7543 1
    7807     7542     7546 1
    7808     7543     7544 1
    7809     7543     7547 1
    7810     7544     7545 1
    7811     7545     7546 1
    7812     7546     7552 1
    7813     7547     7548 1
    7814     7547     7551 1
    7815     7548     7549 1
    7816     7549     7550 1
    7817     7549     7553 1
    7818     7550     7551 1
    7819     7550     7556 1
    7820     7554     7555 1
    7821     7554     7562 1
    7822     7555     7556 1
    7823     7555     7563 1
    7824     7556     7557 1
    7825     7557     7558 1
    7826     7557     7561 1
    7827     7558     7559 1
    7828     7559     7560 1
    7829     7560     7561 1
    7830     7561     7562 1
    7831     7562     7690 1
    7832     7564     7565 1
    7833     7564     7584 1
    7834     7564     7585 1
    7835     7565     7566 1
    7836     7565     7576 1
    7837     7565     7586 1
    7838     7566     7567 1
    7839     7566     7587 1
    7840     7566     7588 1
    7841     7567     7568 1
    7842     7567     7589 1
    7843     7567     7590 1
    7844     7568     7569 1
    7845     7568     7591 1
    7846     7568     7592 1
    7847     7569     7570 1
    7848     7569     7593 1
    7849     7569     7594 1
    7850     7570     7571 1
    7851     7570     7595 1
    7852     7570     7596 1
    7853     7571     7572 1
    7854     7571     7597 1
    7855     7571     7598 1
    7856     7572     7573 1
    7857     7572     7599 1
    7858     7572     7600 1
    7859     7573     7574 1
    7860     7573     7601 1
    7861     7573     7602 1
    7862     7574     7575 1
    7863     7574     7603 1
    7864     7574     7604 1
    7865     7575     7605 1
    7866     7575     7606 1
    7867     7575     7607 1
    7868     7576     7577 1
    7869     7576     7608 1
    7870     7576     7609 1
    7871     7577     7578 1
    7872     7577     7610 1
    7873     7577     7611 1
    7874     7578     7579 1
    7875     7578     7612 1
    7876     7578     7613 1
    7877     7579     7580 1
    7878     7579     7614 1
    7879     7579     7615 1
    7880     7580     7581 1
    7881     7580     7616 1
    7882     7580     7617 1
    7883     7581     7582 1
    7884     7581     7618 1
    7885     7581     7619 1
    7886     7582     7583 1
    7887     7582     7620 1
    7888     7582     7621 1
    7889     7583     7622 1
    7890     7583     7623 1
    7891     7583     7624 1
    7892     7625     7626 1
    7893     7625     7645 1
    7894     7625     7646 1
    7895     7626     7627 1
    7896     7626     7637 1
    7897     7626     7647 1
    7898     7627     7628 1
    7899     7627     7648 1
    7900     7627     7649 1
    7901     7628     7629 1
    7902     7628     7650 1
    7903     7628     7651 1
    7904     7629     7630 1
    7905     7629     7652 1
    7906     7629     7653 1
    7907     7630     7631 1
    7908     7630     7654 1
    7909     7630     7655 1
    7910     7631     7632 1
    7911     7631     7656 1
    7912     7631     7657 1
    7913     7632     7633 1
    7914     7632     7658 1
    7915     7632     7659 1
    7916     7633     7634 1
    7917     7633     7660 1
    7918     7633     7661 1
    7919     7634     7635 1
    7920     7634     7662 1
    7921     7634     7663 1
    7922     7635     7636 1
    7923     7635     7664 1
    7924     7635     7665 1
    7925     7636     7666 1
    7926     7636     7667 1
    7927     7636     7668 1
    7928     7637     7638 1
    7929     7637     7669 1
    7930     7637     7670 1
    7931     7638     7639 1
    7932     7638     7671 1
    7933     7638     7672 1
    7934     7639     7640 1
    7935     7639     7673 1
    7936     7639     7674 1
    7937     7640     7641 1
    7938     7640     7675 1
    7939     7640     7676 1
    7940     7641     7642 1
    7941     7641     7677 1
    7942     7641     7678 1
    7943     7642     7643 1
    7944     7642     7679 1
    7945     7642     7680 1
    7946     7643     7644 1
    7947     7643     7681 1
    7948     7643     7682 1
    7949     7644     7683 1
    7950     7644     7684 1
    7951     7644     7685 1
    7952     7686     7687 1
    7953     7686     7693 1
    7954     7686     7709 1
    7955     7686     7770 1
    7956     7687     7688 1
    7957     7687     7691 1
    7958     7688     7689 1
    7959     7688     7692 1
    7960     7689     7690 1
    7961     7690     7691 1
    7962     7691     7697 1
    7963     7692     7693 1
    7964     7692     7696 1
    7965     7693     7694 1
    7966     7694     7695 1
    7967     7694     7698 1
    7968     7695     7696 1
    7969     7695     7701 1
    7970     7699     7700 1
    7971     7699     7707 1
    7972     7700     7701 1
    7973     7700     7708 1
    7974     7701     7702 1
    7975     7702     7703 1
    7976     7702     7706 1
    7977     7703     7704 1
    7978     7704     7705 1
    7979     7705     7706 1
    7980     7706     7707 1
    7981     7707     7835 1
    7982     7709     7710 1
    7983     7709     7729 1
    7984     7709     7730 1
    7985     7710     7711 1
    7986     7710     7721 1
    7987     7710     7731 1
    7988     7711     7712 1
    7989     7711     7732 1
    7990     7711     7733 1
    7991     7712     7713 1
    7992     7712     7734 1
    7993     7712     7735 1
    7994     7713     7714 1
    7995     7713     7736 1
    7996     7713     7737 1
    7997     7714     7715 1
    7998     7714     7738 1
    7999     7714     7739 1
    8000     7715     7716 1
    8001     7715     7740 1
    8002     7715     7741 1
    8003     7716     7717 1
    8004     7716     7742 1
    8005     7716     7743 1
    8006     7717     7718 1
    8007     7717     7744 1
    8008     7717     7745 1
    8009     7718     7719 1
    8010     7718     7746 1
    8011     7718     7747 1
    8012     7719     7720 1
    8013     7719     7748 1
    8014     7719     7749 1
    8015     7720     7750 1
    8016     7720     7751 1
    8017     7720     7752 1
    8018     7721     7722 1
    8019     7721     7753 1
    8020     7721     7754 1
    8021     7722     7723 1
    8022     7722     7755 1
    8023     7722     7756 1
    8024     7723     7724 1
    8025     7723     7757 1
    8026     7723     7758 1
    8027     7724     7725 1
    8028     7724     7759 1
    8029     7724     7760 1
    8030     7725     7726 1
    8031     7725     7761 1
    8032     7725     7762 1
    8033     7726     7727 1
    8034     7726     7763 1
    8035     7726     7764 1
    8036     7727     7728 1
    8037     7727     7765 1
    8038     7727     7766 1
    8039     7728     7767 1
    8040     7728     7768 1
    8041     7728     7769 1
    8042     7770     7771 1
    8043     7770     7790 1
    8044     7770     7791 1
    8045     7771     7772 1
    8046     7771     7782 1
    8047     7771     7792 1
    8048     7772     7773 1
    8049     7772     7793 1
    8050     7772     7794 1
    8051     7773     7774 1
    8052     7773     7795 1
    8053     7773     7796 1
    8054     7774     7775 1
    8055     7774     7797 1
    8056     7774     7798 1
    8057     7775     7776 1
    8058     7775     7799 1
    8059     7775     7800 1
    8060     7776     7777 1
    8061     7776     7801 1
    8062     7776     7802 1
    8063     7777     7778 1
    8064     7777     7803 1
    8065     7777     7804 1
    8066     7778     7779 1
    8067     7778     7805 1
    8068     7778     7806 1
    8069     7779     7780 1
    8070     7779     7807 1
    8071     7779     7808 1
    8072     7780     7781 1
    8073     7780     7809 1
    8074     7780     7810 1
    8075     7781     7811 1
    8076     7781     7812 1
    8077     7781     7813 1
    8078     7782     7783 1
    8079     7782     7814 1
    8080     7782     7815 1
    8081     7783     7784 1
    8082     7783     7816 1
    8083     7783     7817 1
    8084     7784     7785 1
    8085     7784     7818 1
    8086     7784     7819 1
    8087     7785     7786 1
    8088     7785     7820 1
    8089     7785     7821 1
    8090     7786     7787 1
    8091     7786     7822 1
    8092     7786     7823 1
    8093     7787     7788 1
    8094     7787     7824 1
    8095     7787     7825 1
    8096     7788     7789 1
    8097     7788     7826 1
    8098     7788     7827 1
    8099     7789     7828 1
    8100     7789     7829 1
    8101     7789     7830 1
    8102     7831     7832 1
    8103     7831     7838 1
    8104     7831     7854 1
    8105     7831     7915 1
    8106     7832     7833 1
    8107     7832     7836 1
    8108     7833     7834 1
    8109     7833     7837 1
    8110     7834     7835 1
    8111     7835     7836 1
    8112     7836     7842 1
    8113     7837     7838 1
    8114     7837     7841 1
    8115     7838     7839 1
    8116     7839     7840 1
    8117     7839     7843 1
    8118     7840     7841 1
    8119     7840     7846 1
    8120     7844     7845 1
    8121     7844     7852 1
    8122     7845     7846 1
    8123     7845     7853 1
    8124     7846     7847 1
    8125     7847     7848 1
    8126     7847     7851 1
    8127     7848     7849 1
    8128     7849     7850 1
    8129     7850     7851 1
    8130     7851     7852 1
    8131     7852     7980 1
    8132     7854     7855 1
    8133     7854     7874 1
    8134     7854     7875 1
    8135     7855     7856 1
    8136     7855     7866 1
    8137     7855     7876 1
    8138     7856     7857 1
    8139     7856     7877 1
    8140     7856     7878 1
    8141     7857     7858 1
    8142     7857     7879 1
    8143     7857     7880 1
    8144     7858     7859 1
    8145     7858     7881 1
    8146     7858     7882 1
    8147     7859     7860 1
    8148     7859     7883 1
    8149     7859     7884 1
    8150     7860     7861 1
    8151     7860     7885 1
    8152     7860     7886 1
    8153     7861     7862 1
    8154     7861     7887 1
    8155     7861     7888 1
    8156     7862     7863 1
    8157     7862     7889 1
    8158     7862     7890 1
    8159     7863     7864 1
    8160     7863     7891 1
    8161     7863     7892 1
    8162     7864     7865 1
    8163     7864     7893 1
    8164     7864     7894 1
    8165     7865     7895 1
    8166     7865     7896 1
    8167     7865     7897 1
    8168     7866     7867 1
    8169     7866     7898 1
    8170     7866     7899 1
    8171     7867     7868 1
    8172     7867     7900 1
    8173     7867     7901 1
    8174     7868     7869 1
    8175     7868     7902 1
    8176     7868     7903 1
    8177     7869     7870 1
    8178     7869     7904 1
    8179     7869     7905 1
    8180     7870     7871 1
    8181     7870     7906 1
    8182     7870     7907 1
    8183     7871     7872 1
    8184     7871     7908 1
    8185     7871     7909 1
    8186     7872     7873 1
    8187     7872     7910 1
    8188     7872     7911 1
    8189     7873     7912 1
    8190     7873     7913 1
    8191     7873     7914 1
    8192     7915     7916 1
    8193     7915     7935 1
    8194     7915     7936 1
    8195     7916     7917 1
    8196     7916     7927 1
    8197     7916     7937 1
    8198     7917     7918 1
    8199     7917     7938 1
    8200     7917     7939 1
    8201     7918     7919 1
    8202     7918     7940 1
    8203     7918     7941 1
    8204     7919     7920 1
    8205     7919     7942 1
    8206     7919     7943 1
    8207     7920     7921 1
    8208     7920     7944 1
    8209     7920     7945 1
    8210     7921     7922 1
    8211     7921     7946 1
    8212     7921     7947 1
    8213     7922     7923 1
    8214     7922     7948 1
    8215     7922     7949 1
    8216     7923     7924 1
    8217     7923     7950 1
    8218     7923     7951 1
    8219     7924     7925 1
    8220     7924     7952 1
    8221     7924     7953 1
    8222     7925     7926 1
    8223     7925     7954 1
    8224     7925     7955 1
    8225     7926     7956 1
    8226     7926     7957 1
    8227     7926     7958 1
    8228     7927     7928 1
    8229     7927     7959 1
    8230     7927     7960 1
    8231     7928     7929 1
    8232     7928     7961 1
    8233     7928     7962 1
    8234     7929     7930 1
    8235     7929     7963 1
    8236     7929     7964 1
    8237     7930     7931 1
    8238     7930     7965 1
    8239     7930     7966 1
    8240     7931     7932 1
    8241     7931     7967 1
    8242     7931     7968 1
    8243     7932     7933 1
    8244     7932     7969 1
    8245     7932     7970 1
    8246     7933     7934 1
    8247     7933     7971 1
    8248     7933     7972 1
    8249     7934     7973 1
    8250     7934     7974 1
    8251     7934     7975 1
    8252     7976     7977 1
    8253     7976     7983 1
    8254     7976     7999 1
    8255     7976     8060 1
    8256     7977     7978 1
    8257     7977     7981 1
    8258     7978     7979 1
    8259     7978     7982 1
    8260     7979     7980 1
    8261     7980     7981 1
    8262     7981     7987 1
    8263     7982     7983 1
    8264     7982     7986 1
    8265     7983     7984 1
    8266     7984     7985 1
    8267     7984     7988 1
    8268     7985     7986 1
    8269     7985     7991 1
    8270     7989     7990 1
    8271     7989     7997 1
    8272     7990     7991 1
    8273     7990     7998 1
    8274     7991     7992 1
    8275     7992     7993 1
    8276     7992     7996 1
    8277     7993     7994 1
    8278     7994     7995 1
    8279     7995     7996 1
    8280     7996     7997 1
    8281     7997     8125 1
    8282     7999     8000 1
    8283     7999     8019 1
    8284     7999     8020 1
    8285     8000     8001 1
    8286     8000     8011 1
    8287     8000     8021 1
    8288     8001     8002 1
    8289     8001     8022 1
    8290     8001     8023 1
    8291     8002     8003 1
    8292     8002     8024 1
    8293     8002     8025 1
    8294     8003     8004 1
    8295     8003     8026 1
    8296     8003     8027 1
    8297     8004     8005 1
    8298     8004     8028 1
    8299     8004     8029 1
    8300     8005     8006 1
    8301     8005     8030 1
    8302     8005     8031 1
    8303     8006     8007 1
    8304     8006     8032 1
    8305     8006     8033 1
    8306     8007     8008 1
    8307     8007     8034 1
    8308     8007     8035 1
    8309     8008     8009 1
    8310     8008     8036 1
    8311     8008     8037 1
    8312     8009     8010 1
    8313     8009     8038 1
    8314     8009     8039 1
    8315     8010     8040 1
    8316     8010     8041 1
    8317     8010     8042 1
    8318     8011     8012 1
    8319     8011     8043 1
    8320     8011     8044 1
    8321     8012     8013 1
    8322     8012     8045 1
    8323     8012     8046 1
    8324     8013     8014 1
    8325     8013     8047 1
    8326     8013     8048 1
    8327     8014     8015 1
    8328     8014     8049 1
    8329     8014     8050 1
    8330     8015     8016 1
    8331     8015     8051 1
    8332     8015     8052 1
    8333     8016     8017 1
    8334     8016     8053 1
    8335     8016     8054 1
    8336     8017     8018 1
    8337     8017     8055 1
    8338     8017     8056 1
    8339     8018     8057 1
    8340     8018     8058 1
    8341     8018     8059 1
    8342     8060     8061 1
    8343     8060     8080 1
    8344     8060     8081 1
    8345     8061     8062 1
    8346     8061     8072 1
    8347     8061     8082 1
    8348     8062     8063 1
    8349     8062     8083 1
    8350     8062     8084 1
    8351     8063     8064 1
    8352     8063     8085 1
    8353     8063     8086 1
    8354     8064     8065 1
    8355     8064     8087 1
    8356     8064     8088 1
    8357     8065     8066 1
    8358     8065     8089 1
    8359     8065     8090 1
    8360     8066     8067 1
    8361     8066     8091 1
    8362     8066     8092 1
    8363     8067     8068 1
    8364     8067     8093 1
    8365     8067     8094 1
    8366     8068     8069 1
    8367     8068     8095 1
    8368     8068     8096 1
    8369     8069     8070 1
    8370     8069     8097 1
    8371     8069     8098 1
    8372     8070     8071 1
    8373     8070     8099 1
    8374     8070     8100 1
    8375     8071     8101 1
    8376     8071     8102 1
    8377     8071     8103 1
    8378     8072     8073 1
    8379     8072     8104 1
    8380     8072     8105 1
    8381     8073     8074 1
    8382     8073     8106 1
    8383     8073     8107 1
    8384     8074     8075 1
    8385     8074     8108 1
    8386     8074     8109 1
    8387     8075     8076 1
    8388     8075     8110 1
    8389     8075     8111 1
    8390     8076     8077 1
    8391     8076     8112 1
    8392     8076     8113 1
    8393     8077     8078 1
    8394     8077     8114 1
    8395     8077     8115 1
    8396     8078     8079 1
    8397     8078     8116 1
    8398     8078     8117 1
    8399     8079     8118 1
    8400     8079     8119 1
    8401     8079     8120 1
    8402     8121     8122 1
    8403     8121     8128 1
    8404     8121     8144 1
    8405     8121     8205 1
    8406     8122     8123 1
    8407     8122     8126 1
    8408     8123     8124 1
    8409     8123     8127 1
    8410     8124     8125 1
    8411     8125     8126 1
    8412     8126     8132 1
    8413     8127     8128 1
    8414     8127     8131 1
    8415     8128     8129 1
    8416     8129     8130 1
    8417     8129     8133 1
    8418     8130     8131 1
    8419     8130     8136 1
    8420     8134     8135 1
    8421     8134     8142 1
    8422     8135     8136 1
    8423     8135     8143 1
    8424     8136     8137 1
    8425     8137     8138 1
    8426     8137     8141 1
    8427     8138     8139 1
    8428     8139     8140 1
    8429     8140     8141 1
    8430     8141     8142 1
    8431     8142     8270 1
    8432     8144     8145 1
    8433     8144     8164 1
    8434     8144     8165 1
    8435     8145     8146 1
    8436     8145     8156 1
    8437     8145     8166 1
    8438     8146     8147 1
    8439     8146     8167 1
    8440     8146     8168 1
    8441     8147     8148 1
    8442     8147     8169 1
    8443     8147     8170 1
    8444     8148     8149 1
    8445     8148     8171 1
    8446     8148     8172 1
    8447     8149     8150 1
    8448     8149     8173 1
    8449     8149     8174 1
    8450     8150     8151 1
    8451     8150     8175 1
    8452     8150     8176 1
    8453     8151     8152 1
    8454     8151     8177 1
    8455     8151     8178 1
    8456     8152     8153 1
    8457     8152     8179 1
    8458     8152     8180 1
    8459     8153     8154 1
    8460     8153     8181 1
    8461     8153     8182 1
    8462     8154     8155 1
    8463     8154     8183 1
    8464     8154     8184 1
    8465     8155     8185 1
    8466     8155     8186 1
    8467     8155     8187 1
    8468     8156     8157 1
    8469     8156     8188 1
    8470     8156     8189 1
    8471     8157     8158 1
    8472     8157     8190 1
    8473     8157     8191 1
    8474     8158     8159 1
    8475     8158     8192 1
    8476     8158     8193 1
    8477     8159     8160 1
    8478     8159     8194 1
    8479     8159     8195 1
    8480     8160     8161 1
    8481     8160     8196 1
    8482     8160     8197 1
    8483     8161     8162 1
    8484     8161     8198 1
    8485     8161     8199 1
    8486     8162     8163 1
    8487     8162     8200 1
    8488     8162     8201 1
    8489     8163     8202 1
    8490     8163     8203 1
    8491     8163     8204 1
    8492     8205     8206 1
    8493     8205     8225 1
    8494     8205     8226 1
    8495     8206     8207 1
    8496     8206     8217 1
    8497     8206     8227 1
    8498     8207     8208 1
    8499     8207     8228 1
    8500     8207     8229 1
    8501     8208     8209 1
    8502     8208     8230 1
    8503     8208     8231 1
    8504     8209     8210 1
    8505     8209     8232 1
    8506     8209     8233 1
    8507     8210     8211 1
    8508     8210     8234 1
    8509     8210     8235 1
    8510     8211     8212 1
    8511     8211     8236 1
    8512     8211     8237 1
    8513     8212     8213 1
    8514     8212     8238 1
    8515     8212     8239 1
    8516     8213     8214 1
    8517     8213     8240 1
    8518     8213     8241 1
    8519     8214     8215 1
    8520     8214     8242 1
    8521     8214     8243 1
    8522     8215     8216 1
    8523     8215     8244 1
    8524     8215     8245 1
    8525     8216     8246 1
    8526     8216     8247 1
    8527     8216     8248 1
    8528     8217     8218 1
    8529     8217     8249 1
    8530     8217     8250 1
    8531     8218     8219 1
    8532     8218     8251 1
    8533     8218     8252 1
    8534     8219     8220 1
    8535     8219     8253 1
    8536     8219     8254 1
    8537     8220     8221 1
    8538     8220     8255 1
    8539     8220     8256 1
    8540     8221     8222 1
    8541     8221     8257 1
    8542     8221     8258 1
    8543     8222     8223 1
    8544     8222     8259 1
    8545     8222     8260 1
    8546     8223     8224 1
    8547     8223     8261 1
    8548     8223     8262 1
    8549     8224     8263 1
    8550     8224     8264 1
    8551     8224     8265 1
    8552     8266     8267 1
    8553     8266     8273 1
    8554     8266     8289 1
    8555     8266     8350 1
    8556     8267     8268 1
    8557     8267     8271 1
    8558     8268     8269 1
    8559     8268     8272 1
    8560     8269     8270 1
    8561     8270     8271 1
    8562     8271     8277 1
    8563     8272     8273 1
    8564     8272     8276 1
    8565     8273     8274 1
    8566     8274     8275 1
    8567     8274     8278 1
    8568     8275     8276 1
    8569     8275     8281 1
    8570     8279     8280 1
    8571     8279     8287 1
    8572     8280     8281 1
    8573     8280     8288 1
    8574     8281     8282 1
    8575     8282     8283 1
    8576     8282     8286 1
    8577     8283     8284 1
    8578     8284     8285 1
    8579     8285     8286 1
    8580     8286     8287 1
    8581     8287     8415 1
    8582     8289     8290 1
    8583     8289     8309 1
    8584     8289     8310 1
    8585     8290     8291 1
    8586     8290     8301 1
    8587     8290     8311 1
    8588     8291     8292 1
    8589     8291     8312 1
    8590     8291     8313 1
    8591     8292     8293 1
    8592     8292     8314 1
    8593     8292     8315 1
    8594     8293     8294 1
    8595     8293     8316 1
    8596     8293     8317 1
    8597     8294     8295 1
    8598     8294     8318 1
    8599     8294     8319 1
    8600     8295     8296 1
    8601     8295     8320 1
    8602     8295     8321 1
    8603     8296     8297 1
    8604     8296     8322 1
    8605     8296     8323 1
    8606     8297     8298 1
    8607     8297     8324 1
    8608     8297     8325 1
    8609     8298     8299 1
    8610     8298     8326 1
    8611     8298     8327 1
    8612     8299     8300 1
    8613     8299     8328 1
    8614     8299     8329 1
    8615     8300     8330 1
    8616     8300     8331 1
    8617     8300     8332 1
    8618     8301     8302 1
    8619     8301     8333 1
    8620     8301     8334 1
    8621     8302     8303 1
    8622     8302     8335 1
    8623     8302     8336 1
    8624     8303     8304 1
    8625     8303     8337 1
    8626     8303     8338 1
    8627     8304     8305 1
    8628     8304     8339 1
    8629     8304     8340 1
    8630     8305     8306 1
    8631     8305     8341 1
    8632     8305     8342 1
    8633     8306     8307 1
    8634     8306     8343 1
    8635     8306     8344 1
    8636     8307     8308 1
    8637     8307     8345 1
    8638     8307     8346 1
    8639     8308     8347 1
    8640     8308     8348 1
    8641     8308     8349 1
    8642     8350     8351 1
    8643     8350     8370 1
    8644     8350     8371 1
    8645     8351     8352 1
    8646     8351     8362 1
    8647     8351     8372 1
    8648     8352     8353 1
    8649     8352     8373 1
    8650     8352     8374 1
    8651     8353     8354 1
    8652     8353     8375 1
    8653     8353     8376 1
    8654     8354     8355 1
    8655     8354     8377 1
    8656     8354     8378 1
    8657     8355     8356 1
    8658     8355     8379 1
    8659     8355     8380 1
    8660     8356     8357 1
    8661     8356     8381 1
    8662     8356     8382 1
    8663     8357     8358 1
    8664     8357     8383 1
    8665     8357     8384 1
    8666     8358     8359 1
    8667     8358     8385 1
    8668     8358     8386 1
    8669     8359     8360 1
    8670     8359     8387 1
    8671     8359     8388 1
    8672     8360     8361 1
    8673     8360     8389 1
    8674     8360     8390 1
    8675     8361     8391 1
    8676     8361     8392 1
    8677     8361     8393 1
    8678     8362     8363 1
    8679     8362     8394 1
    8680     8362     8395 1
    8681     8363     8364 1
    8682     8363     8396 1
    8683     8363     8397 1
    8684     8364     8365 1
    8685     8364     8398 1
    8686     8364     8399 1
    8687     8365     8366 1
    8688     8365     8400 1
    8689     8365     8401 1
    8690     8366     8367 1
    8691     8366     8402 1
    8692     8366     8403 1
    8693     8367     8368 1
    8694     8367     8404 1
    8695     8367     8405 1
    8696     8368     8369 1
    8697     8368     8406 1
    8698     8368     8407 1
    8699     8369     8408 1
    8700     8369     8409 1
    8701     8369     8410 1
    8702     8411     8412 1
    8703     8411     8418 1
    8704     8411     8434 1
    8705     8411     8495 1
    8706     8412     8413 1
    8707     8412     8416 1
    8708     8413     8414 1
    8709     8413     8417 1
    8710     8414     8415 1
    8711     8415     8416 1
    8712     8416     8422 1
    8713     8417     8418 1
    8714     8417     8421 1
    8715     8418     8419 1
    8716     8419     8420 1
    8717     8419     8423 1
    8718     8420     8421 1
    8719     8420     8426 1
    8720     8424     8425 1
    8721     8424     8432 1
    8722     8425     8426 1
    8723     8425     8433 1
    8724     8426     8427 1
    8725     8427     8428 1
    8726     8427     8431 1
    8727     8428     8429 1
    8728     8429     8430 1
    8729     8430     8431 1
    8730     8431     8432 1
    8731     8432     8560 1
    8732     8434     8435 1
    8733     8434     8454 1
    8734     8434     8455 1
    8735     8435     8436 1
    8736     8435     8446 1
    8737     8435     8456 1
    8738     8436     8437 1
    8739     8436     8457 1
    8740     8436     8458 1
    8741     8437     8438 1
    8742     8437     8459 1
    8743     8437     8460 1
    8744     8438     8439 1
    8745     8438     8461 1
    8746     8438     8462 1
    8747     8439     8440 1
    8748     8439     8463 1
    8749     8439     8464 1
    8750     8440     8441 1
    8751     8440     8465 1
    8752     8440     8466 1
    8753     8441     8442 1
    8754     8441     8467 1
    8755     8441     8468 1
    8756     8442     8443 1
    8757     8442     8469 1
    8758     8442     8470 1
    8759     8443     8444 1
    8760     8443     8471 1
    8761     8443     8472 1
    8762     8444     8445 1
    8763     8444     8473 1
    8764     8444     8474 1
    8765     8445     8475 1
    8766     8445     8476 1
    8767     8445     8477 1
    8768     8446     8447 1
    8769     8446     8478 1
    8770     8446     8479 1
    8771     8447     8448 1
    8772     8447     8480 1
    8773     8447     8481 1
    8774     8448     8449 1
    8775     8448     8482 1
    8776     8448     8483 1
    8777     8449     8450 1
    8778     8449     8484 1
    8779     8449     8485 1
    8780     8450     8451 1
    8781     8450     8486 1
    8782     8450     8487 1
    8783     8451     8452 1
    8784     8451     8488 1
    8785     8451     8489 1
    8786     8452     8453 1
    8787     8452     8490 1
    8788     8452     8491 1
    8789     8453     8492 1
    8790     8453     8493 1
    8791     8453     8494 1
    8792     8495     8496 1
    8793     8495     8515 1
    8794     8495     8516 1
    8795     8496     8497 1
    8796     8496     8507 1
    8797     8496     8517 1
    8798     8497     8498 1
    8799     8497     8518 1
    8800     8497     8519 1
    8801     8498     8499 1
    8802     8498     8520 1
    8803     8498     8521 1
    8804     8499     8500 1
    8805     8499     8522 1
    8806     8499     8523 1
    8807     8500     8501 1
    8808     8500     8524 1
    8809     8500     8525 1
    8810     8501     8502 1
    8811     8501     8526 1
    8812     8501     8527 1
    8813     8502     8503 1
    8814     8502     8528 1
    8815     8502     8529 1
    8816     8503     8504 1
    8817     8503     8530 1
    8818     8503     8531 1
    8819     8504     8505 1
    8820     8504     8532 1
    8821     8504     8533 1
    8822     8505     8506 1
    8823     8505     8534 1
    8824     8505     8535 1
    8825     8506     8536 1
    8826     8506     8537 1
    8827     8506     8538 1
    8828     8507     8508 1
    8829     8507     8539 1
    8830     8507     8540 1
    8831     8508     8509 1
    8832     8508     8541 1
    8833     8508     8542 1
    8834     8509     8510 1
    8835     8509     8543 1
    8836     8509     8544 1
    8837     8510     8511 1
    8838     8510     8545 1
    8839     8510     8546 1
    8840     8511     8512 1
    8841     8511     8547 1
    8842     8511     8548 1
    8843     8512     8513 1
    8844     8512     8549 1
    8845     8512     8550 1
    8846     8513     8514 1
    8847     8513     8551 1
    8848     8513     8552 1
    8849     8514     8553 1
    8850     8514     8554 1
    8851     8514     8555 1
    8852     8556     8557 1
    8853     8556     8563 1
    8854     8556     8579 1
    8855     8556     8640 1
    8856     8557     8558 1
    8857     8557     8561 1
    8858     8558     8559 1
    8859     8558     8562 1
    8860     8559     8560 1
    8861     8560     8561 1
    8862     8561     8567 1
    8863     8562     8563 1
    8864     8562     8566 1
    8865     8563     8564 1
    8866     8564     8565 1
    8867     8564     8568 1
    8868     8565     8566 1
    8869     8565     8571 1
    8870     8569     8570 1
    8871     8569     8577 1
    8872     8570     8571 1
    8873     8570     8578 1
    8874     8571     8572 1
    8875     8572     8573 1
    8876     8572     8576 1
    8877     8573     8574 1
    8878     8574     8575 1
    8879     8575     8576 1
    8880     8576     8577 1
    8881     8577     8705 1
    8882     8579     8580 1
    8883     8579     8599 1
    8884     8579     8600 1
    8885     8580     8581 1
    8886     8580     8591 1
    8887     8580     8601 1
    8888     8581     8582 1
    8889     8581     8602 1
    8890     8581     8603 1
    8891     8582     8583 1
    8892     8582     8604 1
    8893     8582     8605 1
    8894     8583     8584 1
    8895     8583     8606 1
    8896     8583     8607 1
    8897     8584     8585 1
    8898     8584     8608 1
    8899     8584     8609 1
    8900     8585     8586 1
    8901     8585     8610 1
    8902     8585     8611 1
    8903     8586     8587 1
    8904     8586     8612 1
    8905     8586     8613 1
    8906     8587     8588 1
    8907     8587     8614 1
    8908     8587     8615 1
    8909     8588     8589 1
    8910     8588     8616 1
    8911     8588     8617 1
    8912     8589     8590 1
    8913     8589     8618 1
    8914     8589     8619 1
    8915     8590     8620 1
    8916     8590     8621 1
    8917     8590     8622 1
    8918     8591     8592 1
    8919     8591     8623 1
    8920     8591     8624 1
    8921     8592     8593 1
    8922     8592     8625 1
    8923     8592     8626 1
    8924     8593     8594 1
    8925     8593     8627 1
    8926     8593     8628 1
    8927     8594     8595 1
    8928     8594     8629 1
    8929     8594     8630 1
    8930     8595     8596 1
    8931     8595     8631 1
    8932     8595     8632 1
    8933     8596     8597 1
    8934     8596     8633 1
    8935     8596     8634 1
    8936     8597     8598 1
    8937     8597     8635 1
    8938     8597     8636 1
    8939     8598     8637 1
    8940     8598     8638 1
    8941     8598     8639 1
    8942     8640     8641 1
    8943     8640     8660 1
    8944     8640     8661 1
    8945     8641     8642 1
    8946     8641     8652 1
    8947     8641     8662 1
    8948     8642     8643 1
    8949     8642     8663 1
    8950     8642     8664 1
    8951     8643     8644 1
    8952     8643     8665 1
    8953     8643     8666 1
    8954     8644     8645 1
    8955     8644     8667 1
    8956     8644     8668 1
    8957     8645     8646 1
    8958     8645     8669 1
    8959     8645     8670 1
    8960     8646     8647 1
    8961     8646     8671 1
    8962     8646     8672 1
    8963     8647     8648 1
    8964     8647     8673 1
    8965     8647     8674 1
    8966     8648     8649 1
    8967     8648     8675 1
    8968     8648     8676 1
    8969     8649     8650 1
    8970     8649     8677 1
    8971     8649     8678 1
    8972     8650     8651 1
    8973     8650     8679 1
    8974     8650     8680 1
    8975     8651     8681 1
    8976     8651     8682 1
    8977     8651     8683 1
    8978     8652     8653 1
    8979     8652     8684 1
    8980     8652     8685 1
    8981     8653     8654 1
    8982     8653     8686 1
    8983     8653     8687 1
    8984     8654     8655 1
    8985     8654     8688 1
    8986     8654     8689 1
    8987     8655     8656 1
    8988     8655     8690 1
    8989     8655     8691 1
    8990     8656     8657 1
    8991     8656     8692 1
    8992     8656     8693 1
    8993     8657     8658 1
    8994     8657     8694 1
    8995     8657     8695 1
    8996     8658     8659 1
    8997     8658     8696 1
    8998     8658     8697 1
    8999     8659     8698 1
    9000     8659     8699 1
    9001     8659     8700 1
    9002     8701     8702 1
    9003     8701     8708 1
    9004     8701     8724 1
    9005     8701     8785 1
    9006     8702     8703 1
    9007     8702     8706 1
    9008     8703     8704 1
    9009     8703     8707 1
    9010     8704     8705 1
    9011     8705     8706 1
    9012     8706     8712 1
    9013     8707     8708 1
    9014     8707     8711 1
    9015     8708     8709 1
    9016     8709     8710 1
    9017     8709     8713 1
    9018     8710     8711 1
    9019     8710     8716 1
    9020     8714     8715 1
    9021     8714     8722 1
    9022     8715     8716 1
    9023     8715     8723 1
    9024     8716     8717 1
    9025     8717     8718 1
    9026     8717     8721 1
    9027     8718     8719 1
    9028     8719     8720 1
    9029     8720     8721 1
    9030     8721     8722 1
    9031     8722     8850 1
    9032     8724     8725 1
    9033     8724     8744 1
    9034     8724     8745 1
    9035     8725     8726 1
    9036     8725     8736 1
    9037     8725     8746 1
    9038     8726     8727 1
    9039     8726     8747 1
    9040     8726     8748 1
    9041     8727     8728 1
    9042     8727     8749 1
    9043     8727     8750 1
    9044     8728     8729 1
    9045     8728     8751 1
    9046     8728     8752 1
    9047     8729     8730 1
    9048     8729     8753 1
    9049     8729     8754 1
    9050     8730     8731 1
    9051     8730     8755 1
    9052     8730     8756 1
    9053     8731     8732 1
    9054     8731     8757 1
    9055     8731     8758 1
    9056     8732     8733 1
    9057     8732     8759 1
    9058     8732     8760 1
    9059     8733     8734 1
    9060     8733     8761 1
    9061     8733     8762 1
    9062     8734     8735 1
    9063     8734     8763 1
    9064     8734     8764 1
    9065     8735     8765 1
    9066     8735     8766 1
    9067     8735     8767 1
    9068     8736     8737 1
    9069     8736     8768 1
    9070     8736     8769 1
    9071     8737     8738 1
    9072     8737     8770 1
    9073     8737     8771 1
    9074     8738     8739 1
    9075     8738     8772 1
    9076     8738     8773 1
    9077     8739     8740 1
    9078     8739     8774 1
    9079     8739     8775 1
    9080     8740     8741 1
    9081     8740     8776 1
    9082     8740     8777 1
    9083     8741     8742 1
    9084     8741     8778 1
    9085     8741     8779 1
    9086     8742     8743 1
    9087     8742     8780 1
    9088     8742     8781 1
    9089     8743     8782 1
    9090     8743     8783 1
    9091     8743     8784 1
    9092     8785     8786 1
    9093     8785     8805 1
    9094     8785     8806 1
    9095     8786     8787 1
    9096     8786     8797 1
    9097     8786     8807 1
    9098     8787     8788 1
    9099     8787     8808 1
    9100     8787     8809 1
    9101     8788     8789 1
    9102     8788     8810 1
    9103     8788     8811 1
    9104     8789     8790 1
    9105     8789     8812 1
    9106     8789     8813 1
    9107     8790     8791 1
    9108     8790     8814 1
    9109     8790     8815 1
    9110     8791     8792 1
    9111     8791     8816 1
    9112     8791     8817 1
    9113     8792     8793 1
    9114     8792     8818 1
    9115     8792     8819 1
    9116     8793     8794 1
    9117     8793     8820 1
    9118     8793     8821 1
    9119     8794     8795 1
    9120     8794     8822 1
    9121     8794     8823 1
    9122     8795     8796 1
    9123     8795     8824 1
    9124     8795     8825 1
    9125     8796     8826 1
    9126     8796     8827 1
    9127     8796     8828 1
    9128     8797     8798 1
    9129     8797     8829 1
    9130     8797     8830 1
    9131     8798     8799 1
    9132     8798     8831 1
    9133     8798     8832 1
    9134     8799     8800 1
    9135     8799     8833 1
    9136     8799     8834 1
    9137     8800     8801 1
    9138     8800     8835 1
    9139     8800     8836 1
    9140     8801     8802 1
    9141     8801     8837 1
    9142     8801     8838 1
    9143     8802     8803 1
    9144     8802     8839 1
    9145     8802     8840 1
    9146     8803     8804 1
    9147     8803     8841 1
    9148     8803     8842 1
    9149     8804     8843 1
    9150     8804     8844 1
    9151     8804     8845 1
    9152     8846     8847 1
    9153     8846     8853 1
    9154     8846     8869 1
    9155     8846     8930 1
    9156     8847     8848 1
    9157     8847     8851 1
    9158     8848     8849 1
    9159     8848     8852 1
    9160     8849     8850 1
    9161     8850     8851 1
    9162     8851     8857 1
    9163     8852     8853 1
    9164     8852     8856 1
    9165     8853     8854 1
    9166     8854     8855 1
    9167     8854     8858 1
    9168     8855     8856 1
    9169     8855     8861 1
    9170     8859     8860 1
    9171     8859     8867 1
    9172     8860     8861 1
    9173     8860     8868 1
    9174     8861     8862 1
    9175     8862     8863 1
    9176     8862     8866 1
    9177     8863     8864 1
    9178     8864     8865 1
    9179     8865     8866 1
    9180     8866     8867 1
    9181     8867     8995 1
    9182     8869     8870 1
    9183     8869     8889 1
    9184     8869     8890 1
    9185     8870     8871 1
    9186     8870     8881 1
    9187     8870     8891 1
    9188     8871     8872 1
    9189     8871     8892 1
    9190     8871     8893 1
    9191     8872     8873 1
    9192     8872     8894 1
    9193     8872     8895 1
    9194     8873     8874 1
    9195     8873     8896 1
    9196     8873     8897 1
    9197     8874     8875 1
    9198     8874     8898 1
    9199     8874     8899 1
    9200     8875     8876 1
    9201     8875     8900 1
    9202     8875     8901 1
    9203     8876     8877 1
    9204     8876     8902 1
    9205     8876     8903 1
    9206     8877     8878 1
    9207     8877     8904 1
    9208     8877     8905 1
    9209     8878     8879 1
    9210     8878     8906 1
    9211     8878     8907 1
    9212     8879     8880 1
    9213     8879     8908 1
    9214     8879     8909 1
    9215     8880     8910 1
    9216     8880     8911 1
    9217     8880     8912 1
    9218     8881     8882 1
    9219     8881     8913 1
    9220     8881     8914 1
    9221     8882     8883 1
    9222     8882     8915 1
    9223     8882     8916 1
    9224     8883     8884 1
    9225     8883     8917 1
    9226     8883     8918 1
    9227     8884     8885 1
    9228     8884     8919 1
    9229     8884     8920 1
    9230     8885     8886 1
    9231     8885     8921 1
    9232     8885     8922 1
    9233     8886     8887 1
    9234     8886     8923 1
    9235     8886     8924 1
    9236     8887     8888 1
    9237     8887     8925 1
    9238     8887     8926 1
    9239     8888     8927 1
    9240     8888     8928 1
    9241     8888     8929 1
    9242     8930     8931 1
    9243     8930     8950 1
    9244     8930     8951 1
    9245     8931     8932 1
    9246     8931     8942 1
    9247     8931     8952 1
    9248     8932     8933 1
    9249     8932     8953 1
    9250     8932     8954 1
    9251     8933     8934 1
    9252     8933     8955 1
    9253     8933     8956 1
    9254     8934     8935 1
    9255     8934     8957 1
    9256     8934     8958 1
    9257     8935     8936 1
    9258     8935     8959 1
    9259     8935     8960 1
    9260     8936     8937 1
    9261     8936     8961 1
    9262     8936     8962 1
    9263     8937     8938 1
    9264     8937     8963 1
    9265     8937     8964 1
    9266     8938     8939 1
    9267     8938     8965 1
    9268     8938     8966 1
    9269     8939     8940 1
    9270     8939     8967 1
    9271     8939     8968 1
    9272     8940     8941 1
    9273     8940     8969 1
    9274     8940     8970 1
    9275     8941     8971 1
    9276     8941     8972 1
    9277     8941     8973 1
    9278     8942     8943 1
    9279     8942     8974 1
    9280     8942     8975 1
    9281     8943     8944 1
    9282     8943     8976 1
    9283     8943     8977 1
    9284     8944     8945 1
    9285     8944     8978 1
    9286     8944     8979 1
    9287     8945     8946 1
    9288     8945     8980 1
    9289     8945     8981 1
    9290     8946     8947 1
    9291     8946     8982 1
    9292     8946     8983 1
    9293     8947     8948 1
    9294     8947     8984 1
    9295     8947     8985 1
    9296     8948     8949 1
    9297     8948     8986 1
    9298     8948     8987 1
    9299     8949     8988 1
    9300     8949     8989 1
    9301     8949     8990 1
    9302     8991     8992 1
    9303     8991     8998 1
    9304     8991     9014 1
    9305     8991     9075 1
    9306     8992     8993 1
    9307     8992     8996 1
    9308     8993     8994 1
    9309     8993     8997 1
    9310     8994     8995 1
    9311     8995     8996 1
    9312     8996     9002 1
    9313     8997     8998 1
    9314     8997     9001 1
    9315     8998     8999 1
    9316     8999     9000 1
    9317     8999     9003 1
    9318     9000     9001 1
    9319     9000     9006 1
    9320     9004     9005 1
    9321     9004     9012 1
    9322     9005     9006 1
    9323     9005     9013 1
    9324     9006     9007 1
    9325     9007     9008 1
    9326     9007     9011 1
    9327     9008     9009 1
    9328     9009     9010 1
    9329     9010     9011 1
    9330     9011     9012 1
    9331     9012     9140 1
    9332     9014     9015 1
    9333     9014     9034 1
    9334     9014     9035 1
    9335     9015     9016 1
    9336     9015     9026 1
    9337     9015     9036 1
    9338     9016     9017 1
    9339     9016     9037 1
    9340     9016     9038 1
    9341     9017     9018 1
    9342     9017     9039 1
    9343     9017     9040 1
    9344     9018     9019 1
    9345     9018     9041 1
    9346     9018     9042 1
    9347     9019     9020 1
    9348     9019     9043 1
    9349     9019     9044 1
    9350     9020     9021 1
    9351     9020     9045 1
    9352     9020     9046 1
    9353     9021     9022 1
    9354     9021     9047 1
    9355     9021     9048 1
    9356     9022     9023 1
    9357     9022     9049 1
    9358     9022     9050 1
    9359     9023     9024 1
    9360     9023     9051 1
    9361     9023     9052 1
    9362     9024     9025 1
    9363     9024     9053 1
    9364     9024     9054 1
    9365     9025     9055 1
    9366     9025     9056 1
    9367     9025     9057 1
    9368     9026     9027 1
    9369     9026     9058 1
    9370     9026     9059 1
    9371     9027     9028 1
    9372     9027     9060 1
    9373     9027     9061 1
    9374     9028     9029 1
    9375     9028     9062 1
    9376     9028     9063 1
    9377     9029     9030 1
    9378     9029     9064 1
    9379     9029     9065 1
    9380     9030     9031 1
    9381     9030     9066 1
    9382     9030     9067 1
    9383     9031     9032 1
    9384     9031     9068 1
    9385     9031     9069 1
    9386     9032     9033 1
    9387     9032     9070 1
    9388     9032     9071 1
    9389     9033     9072 1
    9390     9033     9073 1
    9391     9033     9074 1
    9392     9075     9076 1
    9393     9075     9095 1
    9394     9075     9096 1
    9395     9076     9077 1
    9396     9076     9087 1
    9397     9076     9097 1
    9398     9077     9078 1
    9399     9077     9098 1
    9400     9077     9099 1
    9401     9078     9079 1
    9402     9078     9100 1
    9403     9078     9101 1
    9404     9079     9080 1
    9405     9079     9102 1
    9406     9079     9103 1
    9407     9080     9081 1
    9408     9080     9104 1
    9409     9080     9105 1
    9410     9081     9082 1
    9411     9081     9106 1
    9412     9081     9107 1
    9413     9082     9083 1
    9414     9082     9108 1
    9415     9082     9109 1
    9416     9083     9084 1
    9417     9083     9110 1
    9418     9083     9111 1
    9419     9084     9085 1
    9420     9084     9112 1
    9421     9084     9113 1
    9422     9085     9086 1
    9423     9085     9114 1
    9424     9085     9115 1
    9425     9086     9116 1
    9426     9086     9117 1
    9427     9086     9118 1
    9428     9087     9088 1
    9429     9087     9119 1
    9430     9087     9120 1
    9431     9088     9089 1
    9432     9088     9121 1
    9433     9088     9122 1
    9434     9089     9090 1
    9435     9089     9123 1
    9436     9089     9124 1
    9437     9090     9091 1
    9438     9090     9125 1
    9439     9090     9126 1
    9440     9091     9092 1
    9441     9091     9127 1
    9442     9091     9128 1
    9443     9092     9093 1
    9444     9092     9129 1
    9445     9092     9130 1
    9446     9093     9094 1
    9447     9093     9131 1
    9448     9093     9132 1
    9449     9094     9133 1
    9450     9094     9134 1
    9451     9094     9135 1
    9452     9136     9137 1
    9453     9136     9143 1
    9454     9136     9159 1
    9455     9136     9220 1
    9456     9137     9138 1
    9457     9137     9141 1
    9458     9138     9139 1
    9459     9138     9142 1
    9460     9139     9140 1
    9461     9140     9141 1
    9462     9141     9147 1
    9463     9142     9143 1
    9464     9142     9146 1
    9465     9143     9144 1
    9466     9144     9145 1
    9467     9144     9148 1
    9468     9145     9146 1
    9469     9145     9151 1
    9470     9149     9150 1
    9471     9149     9157 1
    9472     9150     9151 1
    9473     9150     9158 1
    9474     9151     9152 1
    9475     9152     9153 1
    9476     9152     9156 1
    9477     9153     9154 1
    9478     9154     9155 1
    9479     9155     9156 1
    9480     9156     9157 1
    9481     9157     9285 1
    9482     9159     9160 1
    9483     9159     9179 1
    9484     9159     9180 1
    9485     9160     9161 1
    9486     9160     9171 1
    9487     9160     9181 1
    9488     9161     9162 1
    9489     9161     9182 1
    9490     9161     9183 1
    9491     9162     9163 1
    9492     9162     9184 1
    9493     9162     9185 1
    9494     9163     9164 1
    9495     9163     9186 1
    9496     9163     9187 1
    9497     9164     9165 1
    9498     9164     9188 1
    9499     9164     9189 1
    9500     9165     9166 1
    9501     9165     9190 1
    9502     9165     9191 1
    9503     9166     9167 1
    9504     9166     9192 1
    9505     9166     9193 1
    9506     9167     9168 1
    9507     9167     9194 1
    9508     9167     9195 1
    9509     9168     9169 1
    9510     9168     9196 1
    9511     9168     9197 1
    9512     9169     9170 1
    9513     9169     9198 1
    9514     9169     9199 1
    9515     9170     9200 1
    9516     9170     9201 1
    9517     9170     9202 1
    9518     9171     9172 1
    9519     9171     9203 1
    9520     9171     9204 1
    9521     9172     9173 1
    9522     9172     9205 1
    9523     9172     9206 1
    9524     9173     9174 1
    9525     9173     9207 1
    9526     9173     9208 1
    9527     9174     9175 1
    9528     9174     9209 1
    9529     9174     9210 1
    9530     9175     9176 1
    9531     9175     9211 1
    9532     9175     9212 1
    9533     9176     9177 1
    9534     9176     9213 1
    9535     9176     9214 1
    9536     9177     9178 1
    9537     9177     9215 1
    9538     9177     9216 1
    9539     9178     9217 1
    9540     9178     9218 1
    9541     9178     9219 1
    9542     9220     9221 1
    9543     9220     9240 1
    9544     9220     9241 1
    9545     9221     9222 1
    9546     9221     9232 1
    9547     9221     9242 1
    9548     9222     9223 1
    9549     9222     9243 1
    9550     9222     9244 1
    9551     9223     9224 1
    9552     9223     9245 1
    9553     9223     9246 1
    9554     9224     9225 1
    9555     9224     9247 1
    9556     9224     9248 1
    9557     9225     9226 1
    9558     9225     9249 1
    9559     9225     9250 1
    9560     9226     9227 1
    9561     9226     9251 1
    9562     9226     9252 1
    9563     9227     9228 1
    9564     9227     9253 1
    9565     9227     9254 1
    9566     9228     9229 1
    9567     9228     9255 1
    9568     9228     9256 1
    9569     9229     9230 1
    9570     9229     9257 1
    9571     9229     9258 1
    9572     9230     9231 1
    9573     9230     9259 1
    9574     9230     9260 1
    9575     9231     9261 1
    9576     9231     9262 1
    9577     9231     9263 1
    9578     9232     9233 1
    9579     9232     9264 1
    9580     9232     9265 1
    9581     9233     9234 1
    9582     9233     9266 1
    9583     9233     9267 1
    9584     9234     9235 1
    9585     9234     9268 1
    9586     9234     9269 1
    9587     9235     9236 1
    9588     9235     9270 1
    9589     9235     9271 1
    9590     9236     9237 1
    9591     9236     9272 1
    9592     9236     9273 1
    9593     9237     9238 1
    9594     9237     9274 1
    9595     9237     9275 1
    9596     9238     9239 1
    9597     9238     9276 1
    9598     9238     9277 1
    9599     9239     9278 1
    9600     9239     9279 1
    9601     9239     9280 1
    9602     9281     9282 1
    9603     9281     9288 1
    9604     9281     9304 1
    9605     9281     9365 1
    9606     9282     9283 1
    9607     9282     9286 1
    9608     9283     9284 1
    9609     9283     9287 1
    9610     9284     9285 1
    9611     9285     9286 1
    9612     9286     9292 1
    9613     9287     9288 1
    9614     9287     9291 1
    9615     9288     9289 1
    9616     9289     9290 1
    9617     9289     9293 1
    9618     9290     9291 1
    9619     9290     9296 1
    9620     9294     9295 1
    9621     9294     9302 1
    9622     9295     9296 1
    9623     9295     9303 1
    9624     9296     9297 1
    9625     9297     9298 1
    9626     9297     9301 1
    9627     9298     9299 1
    9628     9299     9300 1
    9629     9300     9301 1
    9630     9301     9302 1
    9631     9302     9430 1
    9632     9304     9305 1
    9633     9304     9324 1
    9634     9304     9325 1
    9635     9305     9306 1
    9636     9305     9316 1
    9637     9305     9326 1
    9638     9306     9307 1
    9639     9306     9327 1
    9640     9306     9328 1
    9641     9307     9308 1
    9642     9307     9329 1
    9643     9307     9330 1
    9644     9308     9309 1
    9645     9308     9331 1
    9646     9308     9332 1
    9647     9309     9310 1
    9648     9309     9333 1
    9649     9309     9334 1
    9650     9310     9311 1
    9651     9310     9335 1
    9652     9310     9336 1
    9653     9311     9312 1
    9654     9311     9337 1
    9655     9311     9338 1
    9656     9312     9313 1
    9657     9312     9339 1
    9658     9312     9340 1
    9659     9313     9314 1
    9660     9313     9341 1
    9661     9313     9342 1
    9662     9314     9315 1
    9663     9314     9343 1
    9664     9314     9344 1
    9665     9315     9345 1
    9666     9315     9346 1
    9667     9315     9347 1
    9668     9316     9317 1
    9669     9316     9348 1
    9670     9316     9349 1
    9671     9317     9318 1
    9672     9317     9350 1
    9673     9317     9351 1
    9674     9318     9319 1
    9675     9318     9352 1
    9676     9318     9353 1
    9677     9319     9320 1
    9678     9319     9354 1
    9679     9319     9355 1
    9680     9320     9321 1
    9681     9320     9356 1
    9682     9320     9357 1
    9683     9321     9322 1
    9684     9321     9358 1
    9685     9321     9359 1
    9686     9322     9323 1
    9687     9322     9360 1
    9688     9322     9361 1
    9689     9323     9362 1
    9690     9323     9363 1
    9691     9323     9364 1
    9692     9365     9366 1
    9693     9365     9385 1
    9694     9365     9386 1
    9695     9366     9367 1
    9696     9366     9377 1
    9697     9366     9387 1
    9698     9367     9368 1
    9699     9367     9388 1
    9700     9367     9389 1
    9701     9368     9369 1
    9702     9368     9390 1
    9703     9368     9391 1
    9704     9369     9370 1
    9705     9369     9392 1
    9706     9369     9393 1
    9707     9370     9371 1
    9708     9370     9394 1
    9709     9370     9395 1
    9710     9371     9372 1
    9711     9371     9396 1
    9712     9371     9397 1
    9713     9372     9373 1
    9714     9372     9398 1
    9715     9372     9399 1
    9716     9373     9374 1
    9717     9373     9400 1
    9718     9373     9401 1
    9719     9374     9375 1
    9720     9374     9402 1
    9721     9374     9403 1
    9722     9375     9376 1
    9723     9375     9404 1
    9724     9375     9405 1
    9725     9376     9406 1
    9726     9376     9407 1
    9727     9376     9408 1
    9728     9377     9378 1
    9729     9377     9409 1
    9730     9377     9410 1
    9731     9378     9379 1
    9732     9378     9411 1
    9733     9378     9412 1
    9734     9379     9380 1
    9735     9379     9413 1
    9736     9379     9414 1
    9737     9380     9381 1
    9738     9380     9415 1
    9739     9380     9416 1
    9740     9381     9382 1
    9741     9381     9417 1
    9742     9381     9418 1
    9743     9382     9383 1
    9744     9382     9419 1
    9745     9382     9420 1
    9746     9383     9384 1
    9747     9383     9421 1
    9748     9383     9422 1
    9749     9384     9423 1
    9750     9384     9424 1
    9751     9384     9425 1
    9752     9426     9427 1
    9753     9426     9433 1
    9754     9426     9449 1
    9755     9426     9510 1
    9756     9427     9428 1
    9757     9427     9431 1
    9758     9428     9429 1
    9759     9428     9432 1
    9760     9429     9430 1
    9761     9430     9431 1
    9762     9431     9437 1
    9763     9432     9433 1
    9764     9432     9436 1
    9765     9433     9434 1
    9766     9434     9435 1
    9767     9434     9438 1
    9768     9435     9436 1
    9769     9435     9441 1
    9770     9439     9440 1
    9771     9439     9447 1
    9772     9440     9441 1
    9773     9440     9448 1
    9774     9441     9442 1
    9775     9442     9443 1
    9776     9442     9446 1
    9777     9443     9444 1
    9778     9444     9445 1
    9779     9445     9446 1
    9780     9446     9447 1
    9781     9447     9575 1
    9782     9449     9450 1
    9783     9449     9469 1
    9784     9449     9470 1
    9785     9450     9451 1
    9786     9450     9461 1
    9787     9450     9471 1
    9788     9451     9452 1
    9789     9451     9472 1
    9790     9451     9473 1
    9791     9452     9453 1
    9792     9452     9474 1
    9793     9452     9475 1
    9794     9453     9454 1
    9795     9453     9476 1
    9796     9453     9477 1
    9797     9454     9455 1
    9798     9454     9478 1
    9799     9454     9479 1
    9800     9455     9456 1
    9801     9455     9480 1
    9802     9455     9481 1
    9803     9456     9457 1
    9804     9456     9482 1
    9805     9456     9483 1
    9806     9457     9458 1
    9807     9457     9484 1
    9808     9457     9485 1
    9809     9458     9459 1
    9810     9458     9486 1
    9811     9458     9487 1
    9812     9459     9460 1
    9813     9459     9488 1
    9814     9459     9489 1
    9815     9460     9490 1
    9816     9460     9491 1
    9817     9460     9492 1
    9818     9461     9462 1
    9819     9461     9493 1
    9820     9461     9494 1
    9821     9462     9463 1
    9822     9462     9495 1
    9823     9462     9496 1
    9824     9463     9464 1
    9825     9463     9497 1
    9826     9463     9498 1
    9827     9464     9465 1
    9828     9464     9499 1
    9829     9464     9500 1
    9830     9465     9466 1
    9831     9465     9501 1
    9832     9465     9502 1
    9833     9466     9467 1
    9834     9466     9503 1
    9835     9466     9504 1
    9836     9467     9468 1
    9837     9467     9505 1
    9838     9467     9506 1
    9839     9468     9507 1
    9840     9468     9508 1
    9841     9468     9509 1
    9842     9510     9511 1
    9843     9510     9530 1
    9844     9510     9531 1
    9845     9511     9512 1
    9846     9511     9522 1
    9847     9511     9532 1
    9848     9512     9513 1
    9849     9512     9533 1
    9850     9512     9534 1
    9851     9513     9514 1
    9852     9513     9535 1
    9853     9513     9536 1
    9854     9514     9515 1
    9855     9514     9537 1
    9856     9514     9538 1
    9857     9515     9516 1
    9858     9515     9539 1
    9859     9515     9540 1
    9860     9516     9517 1
    9861     9516     9541 1
    9862     9516     9542 1
    9863     9517     9518 1
    9864     9517     9543 1
    9865     9517     9544 1
    9866     9518     9519 1
    9867     9518     9545 1
    9868     9518     9546 1
    9869     9519     9520 1
    9870     9519     9547 1
    9871     9519     9548 1
    9872     9520     9521 1
    9873     9520     9549 1
    9874     9520     9550 1
    9875     9521     9551 1
    9876     9521     9552 1
    9877     9521     9553 1
    9878     9522     9523 1
    9879     9522     9554 1
    9880     9522     9555 1
    9881     9523     9524 1
    9882     9523     9556 1
    9883     9523     9557 1
    9884     9524     9525 1
    9885     9524     9558 1
    9886     9524     9559 1
    9887     9525     9526 1
    9888     9525     9560 1
    9889     9525     9561 1
    9890     9526     9527 1
    9891     9526     9562 1
    9892     9526     9563 1
    9893     9527     9528 1
    9894     9527     9564 1
    9895     9527     9565 1
    9896     9528     9529 1
    9897     9528     9566 1
    9898     9528     9567 1
    9899     9529     9568 1
    9900     9529     9569 1
    9901     9529     9570 1
    9902     9571     9572 1
    9903     9571     9578 1
    9904     9571     9594 1
    9905     9571     9655 1
    9906     9572     9573 1
    9907     9572     9576 1
    9908     9573     9574 1
    9909     9573     9577 1
    9910     9574     9575 1
    9911     9575     9576 1
    9912     9576     9582 1
    9913     9577     9578 1
    9914     9577     9581 1
    9915     9578     9579 1
    9916     9579     9580 1
    9917     9579     9583 1
    9918     9580     9581 1
    9919     9580     9586 1
    9920     9584     9585 1
    9921     9584     9592 1
    9922     9585     9586 1
    9923     9585     9593 1
    9924     9586     9587 1
    9925     9587     9588 1
    9926     9587     9591 1
    9927     9588     9589 1
    9928     9589     9590 1
    9929     9590     9591 1
    9930     9591     9592 1
    9931     9592     9720 1
    9932     9594     9595 1
    9933     9594     9614 1
    9934     9594     9615 1
    9935     9595     9596 1
    9936     9595     9606 1
    9937     9595     9616 1
    9938     9596     9597 1
    9939     9596     9617 1
    9940     9596     9618 1
    9941     9597     9598 1
    9942     9597     9619 1
    9943     9597     9620 1
    9944     9598     9599 1
    9945     9598     9621 1
    9946     9598     9622 1
    9947     9599     9600 1
    9948     9599     9623 1
    9949     9599     9624 1
    9950     9600     9601 1
    9951     9600     9625 1
    9952     9600     9626 1
    9953     9601     9602 1
    9954     9601     9627 1
    9955     9601     9628 1
    9956     9602     9603 1
    9957     9602     9629 1
    9958     9602     9630 1
    9959     9603     9604 1
    9960     9603     9631 1
    9961     9603     9632 1
    9962     9604     9605 1
    9963     9604     9633 1
    9964     9604     9634 1
    9965     9605     9635 1
    9966     9605     9636 1
    9967     9605     9637 1
    9968     9606     9607 1
    9969     9606     9638 1
    9970     9606     9639 1
    9971     9607     9608 1
    9972     9607     9640 1
    9973     9607     9641 1
    9974     9608     9609 1
    9975     9608     9642 1
    9976     9608     9643 1
    9977     9609     9610 1
    9978     9609     9644 1
    9979     9609     9645 1
    9980     9610     9611 1
    9981     9610     9646 1
    9982     9610     9647 1
    9983     9611     9612 1
    9984     9611     9648 1
    9985     9611     9649 1
    9986     9612     9613 1
    9987     9612     9650 1
    9988     9612     9651 1
    9989     9613     9652 1
    9990     9613     9653 1
    9991     9613     9654 1
    9992     9655     9656 1
    9993     9655     9675 1
    9994     9655     9676 1
    9995     9656     9657 1
    9996     9656     9667 1
    9997     9656     9677 1
    9998     9657     9658 1
    9999     9657     9678 1
   10000     9657     9679 1
   10001     9658     9659 1
   10002     9658     9680 1
   10003     9658     9681 1
   10004     9659     9660 1
   10005     9659     9682 1
   10006     9659     9683 1
   10007     9660     9661 1
   10008     9660     9684 1
   10009     9660     9685 1
   10010     9661     9662 1
   10011     9661     9686 1
   10012     9661     9687 1
   10013     9662     9663 1
   10014     9662     9688 1
   10015     9662     9689 1
   10016     9663     9664 1
   10017     9663     9690 1
   10018     9663     9691 1
   10019     9664     9665 1
   10020     9664     9692 1
   10021     9664     9693 1
   10022     9665     9666 1
   10023     9665     9694 1
   10024     9665     9695 1
   10025     9666     9696 1
   10026     9666     9697 1
   10027     9666     9698 1
   10028     9667     9668 1
   10029     9667     9699 1
   10030     9667     9700 1
   10031     9668     9669 1
   10032     9668     9701 1
   10033     9668     9702 1
   10034     9669     9670 1
   10035     9669     9703 1
   10036     9669     9704 1
   10037     9670     9671 1
   10038     9670     9705 1
   10039     9670     9706 1
   10040     9671     9672 1
   10041     9671     9707 1
   10042     9671     9708 1
   10043     9672     9673 1
   10044     9672     9709 1
   10045     9672     9710 1
   10046     9673     9674 1
   10047     9673     9711 1
   10048     9673     9712 1
   10049     9674     9713 1
   10050     9674     9714 1
   10051     9674     9715 1
   10052     9716     9717 1
   10053     9716     9723 1
   10054     9716     9739 1
   10055     9716     9800 1
   10056     9717     9718 1
   10057     9717     9721 1
   10058     9718     9719 1
   10059     9718     9722 1
   10060     9719     9720 1
   10061     9720     9721 1
   10062     9721     9727 1
   10063     9722     9723 1
   10064     9722     9726 1
   10065     9723     9724 1
   10066     9724     9725 1
   10067     9724     9728 1
   10068     9725     9726 1
   10069     9725     9731 1
   10070     9729     9730 1
   10071     9729     9737 1
   10072     9730     9731 1
   10073     9730     9738 1
   10074     9731     9732 1
   10075     9732     9733 1
   10076     9732     9736 1
   10077     9733     9734 1
   10078     9734     9735 1
   10079     9735     9736 1
   10080     9736     9737 1
   10081     9737     9865 1
   10082     9739     9740 1
   10083     9739     9759 1
   10084     9739     9760 1
   10085     9740     9741 1
   10086     9740     9751 1
   10087     9740     9761 1
   10088     9741     9742 1
   10089     9741     9762 1
   10090     9741     9763 1
   10091     9742     9743 1
   10092     9742     9764 1
   10093     9742     9765 1
   10094     9743     9744 1
   10095     9743     9766 1
   10096     9743     9767 1
   10097     9744     9745 1
   10098     9744     9768 1
   10099     9744     9769 1
   10100     9745     9746 1
   10101     9745     9770 1
   10102     9745     9771 1
   10103     9746     9747 1
   10104     9746     9772 1
   10105     9746     9773 1
   10106     9747     9748 1
   10107     9747     9774 1
   10108     9747     9775 1
   10109     9748     9749 1
   10110     9748     9776 1
   10111     9748     9777 1
   10112     9749     9750 1
   10113     9749     9778 1
   10114     9749     9779 1
   10115     9750     9780 1
   10116     9750     9781 1
   10117     9750     9782 1
   10118     9751     9752 1
   10119     9751     9783 1
   10120     9751     9784 1
   10121     9752     9753 1
   10122     9752     9785 1
   10123     9752     9786 1
   10124     9753     9754 1
   10125     9753     9787 1
   10126     9753     9788 1
   10127     9754     9755 1
   10128     9754     9789 1
   10129     9754     9790 1
   10130     9755     9756 1
   10131     9755     9791 1
   10132     9755     9792 1
   10133     9756     9757 1
   10134     9756     9793 1
   10135     9756     9794 1
   10136     9757     9758 1
   10137     9757     9795 1
   10138     9757     9796 1
   10139     9758     9797 1
   10140     9758     9798 1
   10141     9758     9799 1
   10142     9800     9801 1
   10143     9800     9820 1
   10144     9800     9821 1
   10145     9801     9802 1
   10146     9801     9812 1
   10147     9801     9822 1
   10148     9802     9803 1
   10149     9802     9823 1
   10150     9802     9824 1
   10151     9803     9804 1
   10152     9803     9825 1
   10153     9803     9826 1
   10154     9804     9805 1
   10155     9804     9827 1
   10156     9804     9828 1
   10157     9805     9806 1
   10158     9805     9829 1
   10159     9805     9830 1
   10160     9806     9807 1
   10161     9806     9831 1
   10162     9806     9832 1
   10163     9807     9808 1
   10164     9807     9833 1
   10165     9807     9834 1
   10166     9808     9809 1
   10167     9808     9835 1
   10168     9808     9836 1
   10169     9809     9810 1
   10170     9809     9837 1
   10171     9809     9838 1
   10172     9810     9811 1
   10173     9810     9839 1
   10174     9810     9840 1
   10175     9811     9841 1
   10176     9811     9842 1
   10177     9811     9843 1
   10178     9812     9813 1
   10179     9812     9844 1
   10180     9812     9845 1
   10181     9813     9814 1
   10182     9813     9846 1
   10183     9813     9847 1
   10184     9814     9815 1
   10185     9814     9848 1
   10186     9814     9849 1
   10187     9815     9816 1
   10188     9815     9850 1
   10189     9815     9851 1
   10190     9816     9817 1
   10191     9816     9852 1
   10192     9816     9853 1
   10193     9817     9818 1
   10194     9817     9854 1
   10195     9817     9855 1
   10196     9818     9819 1
   10197     9818     9856 1
   10198     9818     9857 1
   10199     9819     9858 1
   10200     9819     9859 1
   10201     9819     9860 1
   10202     9861     9862 1
   10203     9861     9868 1
   10204     9861     9884 1
   10205     9861     9945 1
   10206     9862     9863 1
   10207     9862     9866 1
   10208     9863     9864 1
   10209     9863     9867 1
   10210     9864     9865 1
   10211     9865     9866 1
   10212     9866     9872 1
   10213     9867     9868 1
   10214     9867     9871 1
   10215     9868     9869 1
   10216     9869     9870 1
   10217     9869     9873 1
   10218     9870     9871 1
   10219     9870     9876 1
   10220     9874     9875 1
   10221     9874     9882 1
   10222     9875     9876 1
   10223     9875     9883 1
   10224     9876     9877 1
   10225     9877     9878 1
   10226     9877     9881 1
   10227     9878     9879 1
   10228     9879     9880 1
   10229     9880     9881 1
   10230     9881     9882 1
   10231     9882    10010 1
   10232     9884     9885 1
   10233     9884     9904 1
   10234     9884     9905 1
   10235     9885     9886 1
   10236     9885     9896 1
   10237     9885     9906 1
   10238     9886     9887 1
   10239     9886     9907 1
   10240     9886     9908 1
   10241     9887     9888 1
   10242     9887     9909 1
   10243     9887     9910 1
   10244     9888     9889 1
   10245     9888     9911 1
   10246     9888     9912 1
   10247     9889     9890 1
   10248     9889     9913 1
   10249     9889     9914 1
   10250     9890     9891 1
   10251     9890     9915 1
   10252     9890     9916 1
   10253     9891     9892 1
   10254     9891     9917 1
   10255     9891     9918 1
   10256     9892     9893 1
   10257     9892     9919 1
   10258     9892     9920 1
   10259     9893     9894 1
   10260     9893     9921 1
   10261     9893     9922 1
   10262     9894     9895 1
   10263     9894     9923 1
   10264     9894     9924 1
   10265     9895     9925 1
   10266     9895     9926 1
   10267     9895     9927 1
   10268     9896     9897 1
   10269     9896     9928 1
   10270     9896     9929 1
   10271     9897     9898 1
   10272     9897     9930 1
   10273     9897     9931 1
   10274     9898     9899 1
   10275     9898     9932 1
   10276     9898     9933 1
   10277     9899     9900 1
   10278     9899     9934 1
   10279     9899     9935 1
   10280     9900     9901 1
   10281     9900     9936 1
   10282     9900     9937 1
   10283     9901     9902 1
   10284     9901     9938 1
   10285     9901     9939 1
   10286     9902     9903 1
   10287     9902     9940 1
   10288     9902     9941 1
   10289     9903     9942 1
   10290     9903     9943 1
   10291     9903     9944 1
   10292     9945     9946 1
   10293     9945     9965 1
   10294     9945     9966 1
   10295     9946     9947 1
   10296     9946     9957 1
   10297     9946     9967 1
   10298     9947     9948 1
   10299     9947     9968 1
   10300     9947     9969 1
   10301     9948     9949 1
   10302     9948     9970 1
   10303     9948     9971 1
   10304     9949     9950 1
   10305     9949     9972 1
   10306     9949     9973 1
   10307     9950     9951 1
   10308     9950     9974 1
   10309     9950     9975 1
   10310     9951     9952 1
   10311     9951     9976 1
   10312     9951     9977 1
   10313     9952     9953 1
   10314     9952     9978 1
   10315     9952     9979 1
   10316     9953     9954 1
   10317     9953     9980 1
   10318     9953     9981 1
   10319     9954     9955 1
   10320     9954     9982 1
   10321     9954     9983 1
   10322     9955     9956 1
   10323     9955     9984 1
   10324     9955     9985 1
   10325     9956     9986 1
   10326     9956     9987 1
   10327     9956     9988 1
   10328     9957     9958 1
   10329     9957     9989 1
   10330     9957     9990 1
   10331     9958     9959 1
   10332     9958     9991 1
   10333     9958     9992 1
   10334     9959     9960 1
   10335     9959     9993 1
   10336     9959     9994 1
   10337     9960     9961 1
   10338     9960     9995 1
   10339     9960     9996 1
   10340     9961     9962 1
   10341     9961     9997 1
   10342     9961     9998 1
   10343     9962     9963 1
   10344     9962     9999 1
   10345     9962    10000 1
   10346     9963     9964 1
   10347     9963    10001 1
   10348     9963    10002 1
   10349     9964    10003 1
   10350     9964    10004 1
   10351     9964    10005 1
   10352    10006    10007 1
   10353    10006    10013 1
   10354    10006    10029 1
   10355    10006    10090 1
   10356    10007    10008 1
   10357    10007    10011 1
   10358    10008    10009 1
   10359    10008    10012 1
   10360    10009    10010 1
   10361    10010    10011 1
   10362    10011    10017 1
   10363    10012    10013 1
   10364    10012    10016 1
   10365    10013    10014 1
   10366    10014    10015 1
   10367    10014    10018 1
   10368    10015    10016 1
   10369    10015    10021 1
   10370    10019    10020 1
   10371    10019    10027 1
   10372    10020    10021 1
   10373    10020    10028 1
   10374    10021    10022 1
   10375    10022    10023 1
   10376    10022    10026 1
   10377    10023    10024 1
   10378    10024    10025 1
   10379    10025    10026 1
   10380    10026    10027 1
   10381    10027    10155 1
   10382    10029    10030 1
   10383    10029    10049 1
   10384    10029    10050 1
   10385    10030    10031 1
   10386    10030    10041 1
   10387    10030    10051 1
   10388    10031    10032 1
   10389    10031    10052 1
   10390    10031    10053 1
   10391    10032    10033 1
   10392    10032    10054 1
   10393    10032    10055 1
   10394    10033    10034 1
   10395    10033    10056 1
   10396    10033    10057 1
   10397    10034    10035 1
   10398    10034    10058 1
   10399    10034    10059 1
   10400    10035    10036 1
   10401    10035    10060 1
   10402    10035    10061 1
   10403    10036    10037 1
   10404    10036    10062 1
   10405    10036    10063 1
   10406    10037    10038 1
   10407    10037    10064 1
   10408    10037    10065 1
   10409    10038    10039 1
   10410    10038    10066 1
   10411    10038    10067 1
   10412    10039    10040 1
   10413    10039    10068 1
   10414    10039    10069 1
   10415    10040    10070 1
   10416    10040    10071 1
   10417    10040    10072 1
   10418    10041    10042 1
   10419    10041    10073 1
   10420    10041    10074 1
   10421    10042    10043 1
   10422    10042    10075 1
   10423    10042    10076 1
   10424    10043    10044 1
   10425    10043    10077 1
   10426    10043    10078 1
   10427    10044    10045 1
   10428    10044    10079 1
   10429    10044    10080 1
   10430    10045    10046 1
   10431    10045    10081 1
   10432    10045    10082 1
   10433    10046    10047 1
   10434    10046    10083 1
   10435    10046    10084 1
   10436    10047    10048 1
   10437    10047    10085 1
   10438    10047    10086 1
   10439    10048    10087 1
   10440    10048    10088 1
   10441    10048    10089 1
   10442    10090    10091 1
   10443    10090    10110 1
   10444    10090    10111 1
   10445    10091    10092 1
   10446    10091    10102 1
   10447    10091    10112 1
   10448    10092    10093 1
   10449    10092    10113 1
   10450    10092    10114 1
   10451    10093    10094 1
   10452    10093    10115 1
   10453    10093    10116 1
   10454    10094    10095 1
   10455    10094    10117 1
   10456    10094    10118 1
   10457    10095    10096 1
   10458    10095    10119 1
   10459    10095    10120 1
   10460    10096    10097 1
   10461    10096    10121 1
   10462    10096    10122 1
   10463    10097    10098 1
   10464    10097    10123 1
   10465    10097    10124 1
   10466    10098    10099 1
   10467    10098    10125 1
   10468    10098    10126 1
   10469    10099    10100 1
   10470    10099    10127 1
   10471    10099    10128 1
   10472    10100    10101 1
   10473    10100    10129 1
   10474    10100    10130 1
   10475    10101    10131 1
   10476    10101    10132 1
   10477    10101    10133 1
   10478    10102    10103 1
   10479    10102    10134 1
   10480    10102    10135 1
   10481    10103    10104 1
   10482    10103    10136 1
   10483    10103    10137 1
   10484    10104    10105 1
   10485    10104    10138 1
   10486    10104    10139 1
   10487    10105    10106 1
   10488    10105    10140 1
   10489    10105    10141 1
   10490    10106    10107 1
   10491    10106    10142 1
   10492    10106    10143 1
   10493    10107    10108 1
   10494    10107    10144 1
   10495    10107    10145 1
   10496    10108    10109 1
   10497    10108    10146 1
   10498    10108    10147 1
   10499    10109    10148 1
   10500    10109    10149 1
   10501    10109    10150 1
   10502    10151    10152 1
   10503    10151    10158 1
   10504    10151    10174 1
   10505    10151    10235 1
   10506    10152    10153 1
   10507    10152    10156 1
   10508    10153    10154 1
   10509    10153    10157 1
   10510    10154    10155 1
   10511    10155    10156 1
   10512    10156    10162 1
   10513    10157    10158 1
   10514    10157    10161 1
   10515    10158    10159 1
   10516    10159    10160 1
   10517    10159    10163 1
   10518    10160    10161 1
   10519    10160    10166 1
   10520    10164    10165 1
   10521    10164    10172 1
   10522    10165    10166 1
   10523    10165    10173 1
   10524    10166    10167 1
   10525    10167    10168 1
   10526    10167    10171 1
   10527    10168    10169 1
   10528    10169    10170 1
   10529    10170    10171 1
   10530    10171    10172 1
   10531    10172    10300 1
   10532    10174    10175 1
   10533    10174    10194 1
   10534    10174    10195 1
   10535    10175    10176 1
   10536    10175    10186 1
   10537    10175    10196 1
   10538    10176    10177 1
   10539    10176    10197 1
   10540    10176    10198 1
   10541    10177    10178 1
   10542    10177    10199 1
   10543    10177    10200 1
   10544    10178    10179 1
   10545    10178    10201 1
   10546    10178    10202 1
   10547    10179    10180 1
   10548    10179    10203 1
   10549    10179    10204 1
   10550    10180    10181 1
   10551    10180    10205 1
   10552    10180    10206 1
   10553    10181    10182 1
   10554    10181    10207 1
   10555    10181    10208 1
   10556    10182    10183 1
   10557    10182    10209 1
   10558    10182    10210 1
   10559    10183    10184 1
   10560    10183    10211 1
   10561    10183    10212 1
   10562    10184    10185 1
   10563    10184    10213 1
   10564    10184    10214 1
   10565    10185    10215 1
   10566    10185    10216 1
   10567    10185    10217 1
   10568    10186    10187 1
   10569    10186    10218 1
   10570    10186    10219 1
   10571    10187    10188 1
   10572    10187    10220 1
   10573    10187    10221 1
   10574    10188    10189 1
   10575    10188    10222 1
   10576    10188    10223 1
   10577    10189    10190 1
   10578    10189    10224 1
   10579    10189    10225 1
   10580    10190    10191 1
   10581    10190    10226 1
   10582    10190    10227 1
   10583    10191    10192 1
   10584    10191    10228 1
   10585    10191    10229 1
   10586    10192    10193 1
   10587    10192    10230 1
   10588    10192    10231 1
   10589    10193    10232 1
   10590    10193    10233 1
   10591    10193    10234 1
   10592    10235    10236 1
   10593    10235    10255 1
   10594    10235    10256 1
   10595    10236    10237 1
   10596    10236    10247 1
   10597    10236    10257 1
   10598    10237    10238 1
   10599    10237    10258 1
   10600    10237    10259 1
   10601    10238    10239 1
   10602    10238    10260 1
   10603    10238    10261 1
   10604    10239    10240 1
   10605    10239    10262 1
   10606    10239    10263 1
   10607    10240    10241 1
   10608    10240    10264 1
   10609    10240    10265 1
   10610    10241    10242 1
   10611    10241    10266 1
   10612    10241    10267 1
   10613    10242    10243 1
   10614    10242    10268 1
   10615    10242    10269 1
   10616    10243    10244 1
   10617    10243    10270 1
   10618    10243    10271 1
   10619    10244    10245 1
   10620    10244    10272 1
   10621    10244    10273 1
   10622    10245    10246 1
   10623    10245    10274 1
   10624    10245    10275 1
   10625    10246    10276 1
   10626    10246    10277 1
   10627    10246    10278 1
   10628    10247    10248 1
   10629    10247    10279 1
   10630    10247    10280 1
   10631    10248    10249 1
   10632    10248    10281 1
   10633    10248    10282 1
   10634    10249    10250 1
   10635    10249    10283 1
   10636    10249    10284 1
   10637    10250    10251 1
   10638    10250    10285 1
   10639    10250    10286 1
   10640    10251    10252 1
   10641    10251    10287 1
   10642    10251    10288 1
   10643    10252    10253 1
   10644    10252    10289 1
   10645    10252    10290 1
   10646    10253    10254 1
   10647    10253    10291 1
   10648    10253    10292 1
   10649    10254    10293 1
   10650    10254    10294 1
   10651    10254    10295 1
   10652    10296    10297 1
   10653    10296    10303 1
   10654    10296    10319 1
   10655    10296    10380 1
   10656    10297    10298 1
   10657    10297    10301 1
   10658    10298    10299 1
   10659    10298    10302 1
   10660    10299    10300 1
   10661    10300    10301 1
   10662    10301    10307 1
   10663    10302    10303 1
   10664    10302    10306 1
   10665    10303    10304 1
   10666    10304    10305 1
   10667    10304    10308 1
   10668    10305    10306 1
   10669    10305    10311 1
   10670    10309    10310 1
   10671    10309    10317 1
   10672    10310    10311 1
   10673    10310    10318 1
   10674    10311    10312 1
   10675    10312    10313 1
   10676    10312    10316 1
   10677    10313    10314 1
   10678    10314    10315 1
   10679    10315    10316 1
   10680    10316    10317 1
   10681    10317    10445 1
   10682    10319    10320 1
   10683    10319    10339 1
   10684    10319    10340 1
   10685    10320    10321 1
   10686    10320    10331 1
   10687    10320    10341 1
   10688    10321    10322 1
   10689    10321    10342 1
   10690    10321    10343 1
   10691    10322    10323 1
   10692    10322    10344 1
   10693    10322    10345 1
   10694    10323    10324 1
   10695    10323    10346 1
   10696    10323    10347 1
   10697    10324    10325 1
   10698    10324    10348 1
   10699    10324    10349 1
   10700    10325    10326 1
   10701    10325    10350 1
   10702    10325    10351 1
   10703    10326    10327 1
   10704    10326    10352 1
   10705    10326    10353 1
   10706    10327    10328 1
   10707    10327    10354 1
   10708    10327    10355 1
   10709    10328    10329 1
   10710    10328    10356 1
   10711    10328    10357 1
   10712    10329    10330 1
   10713    10329    10358 1
   10714    10329    10359 1
   10715    10330    10360 1
   10716    10330    10361 1
   10717    10330    10362 1
   10718    10331    10332 1
   10719    10331    10363 1
   10720    10331    10364 1
   10721    10332    10333 1
   10722    10332    10365 1
   10723    10332    10366 1
   10724    10333    10334 1
   10725    10333    10367 1
   10726    10333    10368 1
   10727    10334    10335 1
   10728    10334    10369 1
   10729    10334    10370 1
   10730    10335    10336 1
   10731    10335    10371 1
   10732    10335    10372 1
   10733    10336    10337 1
   10734    10336    10373 1
   10735    10336    10374 1
   10736    10337    10338 1
   10737    10337    10375 1
   10738    10337    10376 1
   10739    10338    10377 1
   10740    10338    10378 1
   10741    10338    10379 1
   10742    10380    10381 1
   10743    10380    10400 1
   10744    10380    10401 1
   10745    10381    10382 1
   10746    10381    10392 1
   10747    10381    10402 1
   10748    10382    10383 1
   10749    10382    10403 1
   10750    10382    10404 1
   10751    10383    10384 1
   10752    10383    10405 1
   10753    10383    10406 1
   10754    10384    10385 1
   10755    10384    10407 1
   10756    10384    10408 1
   10757    10385    10386 1
   10758    10385    10409 1
   10759    10385    10410 1
   10760    10386    10387 1
   10761    10386    10411 1
   10762    10386    10412 1
   10763    10387    10388 1
   10764    10387    10413 1
   10765    10387    10414 1
   10766    10388    10389 1
   10767    10388    10415 1
   10768    10388    10416 1
   10769    10389    10390 1
   10770    10389    10417 1
   10771    10389    10418 1
   10772    10390    10391 1
   10773    10390    10419 1
   10774    10390    10420 1
   10775    10391    10421 1
   10776    10391    10422 1
   10777    10391    10423 1
   10778    10392    10393 1
   10779    10392    10424 1
   10780    10392    10425 1
   10781    10393    10394 1
   10782    10393    10426 1
   10783    10393    10427 1
   10784    10394    10395 1
   10785    10394    10428 1
   10786    10394    10429 1
   10787    10395    10396 1
   10788    10395    10430 1
   10789    10395    10431 1
   10790    10396    10397 1
   10791    10396    10432 1
   10792    10396    10433 1
   10793    10397    10398 1
   10794    10397    10434 1
   10795    10397    10435 1
   10796    10398    10399 1
   10797    10398    10436 1
   10798    10398    10437 1
   10799    10399    10438 1
   10800    10399    10439 1
   10801    10399    10440 1
   10802    10441    10442 1
   10803    10441    10448 1
   10804    10441    10464 1
   10805    10441    10525 1
   10806    10442    10443 1
   10807    10442    10446 1
   10808    10443    10444 1
   10809    10443    10447 1
   10810    10444    10445 1
   10811    10445    10446 1
   10812    10446    10452 1
   10813    10447    10448 1
   10814    10447    10451 1
   10815    10448    10449 1
   10816    10449    10450 1
   10817    10449    10453 1
   10818    10450    10451 1
   10819    10450    10456 1
   10820    10454    10455 1
   10821    10454    10462 1
   10822    10455    10456 1
   10823    10455    10463 1
   10824    10456    10457 1
   10825    10457    10458 1
   10826    10457    10461 1
   10827    10458    10459 1
   10828    10459    10460 1
   10829    10460    10461 1
   10830    10461    10462 1
   10831    10462    10590 1
   10832    10464    10465 1
   10833    10464    10484 1
   10834    10464    10485 1
   10835    10465    10466 1
   10836    10465    10476 1
   10837    10465    10486 1
   10838    10466    10467 1
   10839    10466    10487 1
   10840    10466    10488 1
   10841    10467    10468 1
   10842    10467    10489 1
   10843    10467    10490 1
   10844    10468    10469 1
   10845    10468    10491 1
   10846    10468    10492 1
   10847    10469    10470 1
   10848    10469    10493 1
   10849    10469    10494 1
   10850    10470    10471 1
   10851    10470    10495 1
   10852    10470    10496 1
   10853    10471    10472 1
   10854    10471    10497 1
   10855    10471    10498 1
   10856    10472    10473 1
   10857    10472    10499 1
   10858    10472    10500 1
   10859    10473    10474 1
   10860    10473    10501 1
   10861    10473    10502 1
   10862    10474    10475 1
   10863    10474    10503 1
   10864    10474    10504 1
   10865    10475    10505 1
   10866    10475    10506 1
   10867    10475    10507 1
   10868    10476    10477 1
   10869    10476    10508 1
   10870    10476    10509 1
   10871    10477    10478 1
   10872    10477    10510 1
   10873    10477    10511 1
   10874    10478    10479 1
   10875    10478    10512 1
   10876    10478    10513 1
   10877    10479    10480 1
   10878    10479    10514 1
   10879    10479    10515 1
   10880    10480    10481 1
   10881    10480    10516 1
   10882    10480    10517 1
   10883    10481    10482 1
   10884    10481    10518 1
   10885    10481    10519 1
   10886    10482    10483 1
   10887    10482    10520 1
   10888    10482    10521 1
   10889    10483    10522 1
   10890    10483    10523 1
   10891    10483    10524 1
   10892    10525    10526 1
   10893    10525    10545 1
   10894    10525    10546 1
   10895    10526    10527 1
   10896    10526    10537 1
   10897    10526    10547 1
   10898    10527    10528 1
   10899    10527    10548 1
   10900    10527    10549 1
   10901    10528    10529 1
   10902    10528    10550 1
   10903    10528    10551 1
   10904    10529    10530 1
   10905    10529    10552 1
   10906    10529    10553 1
   10907    10530    10531 1
   10908    10530    10554 1
   10909    10530    10555 1
   10910    10531    10532 1
   10911    10531    10556 1
   10912    10531    10557 1
   10913    10532    10533 1
   10914    10532    10558 1
   10915    10532    10559 1
   10916    10533    10534 1
   10917    10533    10560 1
   10918    10533    10561 1
   10919    10534    10535 1
   10920    10534    10562 1
   10921    10534    10563 1
   10922    10535    10536 1
   10923    10535    10564 1
   10924    10535    10565 1
   10925    10536    10566 1
   10926    10536    10567 1
   10927    10536    10568 1
   10928    10537    10538 1
   10929    10537    10569 1
   10930    10537    10570 1
   10931    10538    10539 1
   10932    10538    10571 1
   10933    10538    10572 1
   10934    10539    10540 1
   10935    10539    10573 1
   10936    10539    10574 1
   10937    10540    10541 1
   10938    10540    10575 1
   10939    10540    10576 1
   10940    10541    10542 1
   10941    10541    10577 1
   10942    10541    10578 1
   10943    10542    10543 1
   10944    10542    10579 1
   10945    10542    10580 1
   10946    10543    10544 1
   10947    10543    10581 1
   10948    10543    10582 1
   10949    10544    10583 1
   10950    10544    10584 1
   10951    10544    10585 1
   10952    10586    10587 1
   10953    10586    10593 1
   10954    10586    10609 1
   10955    10586    10670 1
   10956    10587    10588 1
   10957    10587    10591 1
   10958    10588    10589 1
   10959    10588    10592 1
   10960    10589    10590 1
   10961    10590    10591 1
   10962    10591    10597 1
   10963    10592    10593 1
   10964    10592    10596 1
   10965    10593    10594 1
   10966    10594    10595 1
   10967    10594    10598 1
   10968    10595    10596 1
   10969    10595    10601 1
   10970    10599    10600 1
   10971    10599    10607 1
   10972    10600    10601 1
   10973    10600    10608 1
   10974    10601    10602 1
   10975    10602    10603 1
   10976    10602    10606 1
   10977    10603    10604 1
   10978    10604    10605 1
   10979    10605    10606 1
   10980    10606    10607 1
   10981    10607    10735 1
   10982    10609    10610 1
   10983    10609    10629 1
   10984    10609    10630 1
   10985    10610    10611 1
   10986    10610    10621 1
   10987    10610    10631 1
   10988    10611    10612 1
   10989    10611    10632 1
   10990    10611    10633 1
   10991    10612    10613 1
   10992    10612    10634 1
   10993    10612    10635 1
   10994    10613    10614 1
   10995    10613    10636 1
   10996    10613    10637 1
   10997    10614    10615 1
   10998    10614    10638 1
   10999    10614    10639 1
   11000    10615    10616 1
   11001    10615    10640 1
   11002    10615    10641 1
   11003    10616    10617 1
   11004    10616    10642 1
   11005    10616    10643 1
   11006    10617    10618 1
   11007    10617    10644 1
   11008    10617    10645 1
   11009    10618    10619 1
   11010    10618    10646 1
   11011    10618    10647 1
   11012    10619    10620 1
   11013    10619    10648 1
   11014    10619    10649 1
   11015    10620    10650 1
   11016    10620    10651 1
   11017    10620    10652 1
   11018    10621    10622 1
   11019    10621    10653 1
   11020    10621    10654 1
   11021    10622    10623 1
   11022    10622    10655 1
   11023    10622    10656 1
   11024    10623    10624 1
   11025    10623    10657 1
   11026    10623    10658 1
   11027    10624    10625 1
   11028    10624    10659 1
   11029    10624    10660 1
   11030    10625    10626 1
   11031    10625    10661 1
   11032    10625    10662 1
   11033    10626    10627 1
   11034    10626    10663 1
   11035    10626    10664 1
   11036    10627    10628 1
   11037    10627    10665 1
   11038    10627    10666 1
   11039    10628    10667 1
   11040    10628    10668 1
   11041    10628    10669 1
   11042    10670    10671 1
   11043    10670    10690 1
   11044    10670    10691 1
   11045    10671    10672 1
   11046    10671    10682 1
   11047    10671    10692 1
   11048    10672    10673 1
   11049    10672    10693 1
   11050    10672    10694 1
   11051    10673    10674 1
   11052    10673    10695 1
   11053    10673    10696 1
   11054    10674    10675 1
   11055    10674    10697 1
   11056    10674    10698 1
   11057    10675    10676 1
   11058    10675    10699 1
   11059    10675    10700 1
   11060    10676    10677 1
   11061    10676    10701 1
   11062    10676    10702 1
   11063    10677    10678 1
   11064    10677    10703 1
   11065    10677    10704 1
   11066    10678    10679 1
   11067    10678    10705 1
   11068    10678    10706 1
   11069    10679    10680 1
   11070    10679    10707 1
   11071    10679    10708 1
   11072    10680    10681 1
   11073    10680    10709 1
   11074    10680    10710 1
   11075    10681    10711 1
   11076    10681    10712 1
   11077    10681    10713 1
   11078    10682    10683 1
   11079    10682    10714 1
   11080    10682    10715 1
   11081    10683    10684 1
   11082    10683    10716 1
   11083    10683    10717 1
   11084    10684    10685 1
   11085    10684    10718 1
   11086    10684    10719 1
   11087    10685    10686 1
   11088    10685    10720 1
   11089    10685    10721 1
   11090    10686    10687 1
   11091    10686    10722 1
   11092    10686    10723 1
   11093    10687    10688 1
   11094    10687    10724 1
   11095    10687    10725 1
   11096    10688    10689 1
   11097    10688    10726 1
   11098    10688    10727 1
   11099    10689    10728 1
   11100    10689    10729 1
   11101    10689    10730 1
   11102    10731    10732 1
   11103    10731    10738 1
   11104    10731    10754 1
   11105    10731    10815 1
   11106    10732    10733 1
   11107    10732    10736 1
   11108    10733    10734 1
   11109    10733    10737 1
   11110    10734    10735 1
   11111    10735    10736 1
   11112    10736    10742 1
   11113    10737    10738 1
   11114    10737    10741 1
   11115    10738    10739 1
   11116    10739    10740 1
   11117    10739    10743 1
   11118    10740    10741 1
   11119    10740    10746 1
   11120    10744    10745 1
   11121    10744    10752 1
   11122    10745    10746 1
   11123    10745    10753 1
   11124    10746    10747 1
   11125    10747    10748 1
   11126    10747    10751 1
   11127    10748    10749 1
   11128    10749    10750 1
   11129    10750    10751 1
   11130    10751    10752 1
   11131    10752    10880 1
   11132    10754    10755 1
   11133    10754    10774 1
   11134    10754    10775 1
   11135    10755    10756 1
   11136    10755    10766 1
   11137    10755    10776 1
   11138    10756    10757 1
   11139    10756    10777 1
   11140    10756    10778 1
   11141    10757    10758 1
   11142    10757    10779 1
   11143    10757    10780 1
   11144    10758    10759 1
   11145    10758    10781 1
   11146    10758    10782 1
   11147    10759    10760 1
   11148    10759    10783 1
   11149    10759    10784 1
   11150    10760    10761 1
   11151    10760    10785 1
   11152    10760    10786 1
   11153    10761    10762 1
   11154    10761    10787 1
   11155    10761    10788 1
   11156    10762    10763 1
   11157    10762    10789 1
   11158    10762    10790 1
   11159    10763    10764 1
   11160    10763    10791 1
   11161    10763    10792 1
   11162    10764    10765 1
   11163    10764    10793 1
   11164    10764    10794 1
   11165    10765    10795 1
   11166    10765    10796 1
   11167    10765    10797 1
   11168    10766    10767 1
   11169    10766    10798 1
   11170    10766    10799 1
   11171    10767    10768 1
   11172    10767    10800 1
   11173    10767    10801 1
   11174    10768    10769 1
   11175    10768    10802 1
   11176    10768    10803 1
   11177    10769    10770 1
   11178    10769    10804 1
   11179    10769    10805 1
   11180    10770    10771 1
   11181    10770    10806 1
   11182    10770    10807 1
   11183    10771    10772 1
   11184    10771    10808 1
   11185    10771    10809 1
   11186    10772    10773 1
   11187    10772    10810 1
   11188    10772    10811 1
   11189    10773    10812 1
   11190    10773    10813 1
   11191    10773    10814 1
   11192    10815    10816 1
   11193    10815    10835 1
   11194    10815    10836 1
   11195    10816    10817 1
   11196    10816    10827 1
   11197    10816    10837 1
   11198    10817    10818 1
   11199    10817    10838 1
   11200    10817    10839 1
   11201    10818    10819 1
   11202    10818    10840 1
   11203    10818    10841 1
   11204    10819    10820 1
   11205    10819    10842 1
   11206    10819    10843 1
   11207    10820    10821 1
   11208    10820    10844 1
   11209    10820    10845 1
   11210    10821    10822 1
   11211    10821    10846 1
   11212    10821    10847 1
   11213    10822    10823 1
   11214    10822    10848 1
   11215    10822    10849 1
   11216    10823    10824 1
   11217    10823    10850 1
   11218    10823    10851 1
   11219    10824    10825 1
   11220    10824    10852 1
   11221    10824    10853 1
   11222    10825    10826 1
   11223    10825    10854 1
   11224    10825    10855 1
   11225    10826    10856 1
   11226    10826    10857 1
   11227    10826    10858 1
   11228    10827    10828 1
   11229    10827    10859 1
   11230    10827    10860 1
   11231    10828    10829 1
   11232    10828    10861 1
   11233    10828    10862 1
   11234    10829    10830 1
   11235    10829    10863 1
   11236    10829    10864 1
   11237    10830    10831 1
   11238    10830    10865 1
   11239    10830    10866 1
   11240    10831    10832 1
   11241    10831    10867 1
   11242    10831    10868 1
   11243    10832    10833 1
   11244    10832    10869 1
   11245    10832    10870 1
   11246    10833    10834 1
   11247    10833    10871 1
   11248    10833    10872 1
   11249    10834    10873 1
   11250    10834    10874 1
   11251    10834    10875 1
   11252    10876    10877 1
   11253    10876    10883 1
   11254    10876    10899 1
   11255    10876    10960 1
   11256    10877    10878 1
   11257    10877    10881 1
   11258    10878    10879 1
   11259    10878    10882 1
   11260    10879    10880 1
   11261    10880    10881 1
   11262    10881    10887 1
   11263    10882    10883 1
   11264    10882    10886 1
   11265    10883    10884 1
   11266    10884    10885 1
   11267    10884    10888 1
   11268    10885    10886 1
   11269    10885    10891 1
   11270    10889    10890 1
   11271    10889    10897 1
   11272    10890    10891 1
   11273    10890    10898 1
   11274    10891    10892 1
   11275    10892    10893 1
   11276    10892    10896 1
   11277    10893    10894 1
   11278    10894    10895 1
   11279    10895    10896 1
   11280    10896    10897 1
   11281    10897    11025 1
   11282    10899    10900 1
   11283    10899    10919 1
   11284    10899    10920 1
   11285    10900    10901 1
   11286    10900    10911 1
   11287    10900    10921 1
   11288    10901    10902 1
   11289    10901    10922 1
   11290    10901    10923 1
   11291    10902    10903 1
   11292    10902    10924 1
   11293    10902    10925 1
   11294    10903    10904 1
   11295    10903    10926 1
   11296    10903    10927 1
   11297    10904    10905 1
   11298    10904    10928 1
   11299    10904    10929 1
   11300    10905    10906 1
   11301    10905    10930 1
   11302    10905    10931 1
   11303    10906    10907 1
   11304    10906    10932 1
   11305    10906    10933 1
   11306    10907    10908 1
   11307    10907    10934 1
   11308    10907    10935 1
   11309    10908    10909 1
   11310    10908    10936 1
   11311    10908    10937 1
   11312    10909    10910 1
   11313    10909    10938 1
   11314    10909    10939 1
   11315    10910    10940 1
   11316    10910    10941 1
   11317    10910    10942 1
   11318    10911    10912 1
   11319    10911    10943 1
   11320    10911    10944 1
   11321    10912    10913 1
   11322    10912    10945 1
   11323    10912    10946 1
   11324    10913    10914 1
   11325    10913    10947 1
   11326    10913    10948 1
   11327    10914    10915 1
   11328    10914    10949 1
   11329    10914    10950 1
   11330    10915    10916 1
   11331    10915    10951 1
   11332    10915    10952 1
   11333    10916    10917 1
   11334    10916    10953 1
   11335    10916    10954 1
   11336    10917    10918 1
   11337    10917    10955 1
   11338    10917    10956 1
   11339    10918    10957 1
   11340    10918    10958 1
   11341    10918    10959 1
   11342    10960    10961 1
   11343    10960    10980 1
   11344    10960    10981 1
   11345    10961    10962 1
   11346    10961    10972 1
   11347    10961    10982 1
   11348    10962    10963 1
   11349    10962    10983 1
   11350    10962    10984 1
   11351    10963    10964 1
   11352    10963    10985 1
   11353    10963    10986 1
   11354    10964    10965 1
   11355    10964    10987 1
   11356    10964    10988 1
   11357    10965    10966 1
   11358    10965    10989 1
   11359    10965    10990 1
   11360    10966    10967 1
   11361    10966    10991 1
   11362    10966    10992 1
   11363    10967    10968 1
   11364    10967    10993 1
   11365    10967    10994 1
   11366    10968    10969 1
   11367    10968    10995 1
   11368    10968    10996 1
   11369    10969    10970 1
   11370    10969    10997 1
   11371    10969    10998 1
   11372    10970    10971 1
   11373    10970    10999 1
   11374    10970    11000 1
   11375    10971    11001 1
   11376    10971    11002 1
   11377    10971    11003 1
   11378    10972    10973 1
   11379    10972    11004 1
   11380    10972    11005 1
   11381    10973    10974 1
   11382    10973    11006 1
   11383    10973    11007 1
   11384    10974    10975 1
   11385    10974    11008 1
   11386    10974    11009 1
   11387    10975    10976 1
   11388    10975    11010 1
   11389    10975    11011 1
   11390    10976    10977 1
   11391    10976    11012 1
   11392    10976    11013 1
   11393    10977    10978 1
   11394    10977    11014 1
   11395    10977    11015 1
   11396    10978    10979 1
   11397    10978    11016 1
   11398    10978    11017 1
   11399    10979    11018 1
   11400    10979    11019 1
   11401    10979    11020 1
   11402    11021    11022 1
   11403    11021    11028 1
   11404    11021    11044 1
   11405    11021    11105 1
   11406    11022    11023 1
   11407    11022    11026 1
   11408    11023    11024 1
   11409    11023    11027 1
   11410    11024    11025 1
   11411    11025    11026 1
   11412    11026    11032 1
   11413    11027    11028 1
   11414    11027    11031 1
   11415    11028    11029 1
   11416    11029    11030 1
   11417    11029    11033 1
   11418    11030    11031 1
   11419    11030    11036 1
   11420    11034    11035 1
   11421    11034    11042 1
   11422    11035    11036 1
   11423    11035    11043 1
   11424    11036    11037 1
   11425    11037    11038 1
   11426    11037    11041 1
   11427    11038    11039 1
   11428    11039    11040 1
   11429    11040    11041 1
   11430    11041    11042 1
   11431    11042    11170 1
   11432    11044    11045 1
   11433    11044    11064 1
   11434    11044    11065 1
   11435    11045    11046 1
   11436    11045    11056 1
   11437    11045    11066 1
   11438    11046    11047 1
   11439    11046    11067 1
   11440    11046    11068 1
   11441    11047    11048 1
   11442    11047    11069 1
   11443    11047    11070 1
   11444    11048    11049 1
   11445    11048    11071 1
   11446    11048    11072 1
   11447    11049    11050 1
   11448    11049    11073 1
   11449    11049    11074 1
   11450    11050    11051 1
   11451    11050    11075 1
   11452    11050    11076 1
   11453    11051    11052 1
   11454    11051    11077 1
   11455    11051    11078 1
   11456    11052    11053 1
   11457    11052    11079 1
   11458    11052    11080 1
   11459    11053    11054 1
   11460    11053    11081 1
   11461    11053    11082 1
   11462    11054    11055 1
   11463    11054    11083 1
   11464    11054    11084 1
   11465    11055    11085 1
   11466    11055    11086 1
   11467    11055    11087 1
   11468    11056    11057 1
   11469    11056    11088 1
   11470    11056    11089 1
   11471    11057    11058 1
   11472    11057    11090 1
   11473    11057    11091 1
   11474    11058    11059 1
   11475    11058    11092 1
   11476    11058    11093 1
   11477    11059    11060 1
   11478    11059    11094 1
   11479    11059    11095 1
   11480    11060    11061 1
   11481    11060    11096 1
   11482    11060    11097 1
   11483    11061    11062 1
   11484    11061    11098 1
   11485    11061    11099 1
   11486    11062    11063 1
   11487    11062    11100 1
   11488    11062    11101 1
   11489    11063    11102 1
   11490    11063    11103 1
   11491    11063    11104 1
   11492    11105    11106 1
   11493    11105    11125 1
   11494    11105    11126 1
   11495    11106    11107 1
   11496    11106    11117 1
   11497    11106    11127 1
   11498    11107    11108 1
   11499    11107    11128 1
   11500    11107    11129 1
   11501    11108    11109 1
   11502    11108    11130 1
   11503    11108    11131 1
   11504    11109    11110 1
   11505    11109    11132 1
   11506    11109    11133 1
   11507    11110    11111 1
   11508    11110    11134 1
   11509    11110    11135 1
   11510    11111    11112 1
   11511    11111    11136 1
   11512    11111    11137 1
   11513    11112    11113 1
   11514    11112    11138 1
   11515    11112    11139 1
   11516    11113    11114 1
   11517    11113    11140 1
   11518    11113    11141 1
   11519    11114    11115 1
   11520    11114    11142 1
   11521    11114    11143 1
   11522    11115    11116 1
   11523    11115    11144 1
   11524    11115    11145 1
   11525    11116    11146 1
   11526    11116    11147 1
   11527    11116    11148 1
   11528    11117    11118 1
   11529    11117    11149 1
   11530    11117    11150 1
   11531    11118    11119 1
   11532    11118    11151 1
   11533    11118    11152 1
   11534    11119    11120 1
   11535    11119    11153 1
   11536    11119    11154 1
   11537    11120    11121 1
   11538    11120    11155 1
   11539    11120    11156 1
   11540    11121    11122 1
   11541    11121    11157 1
   11542    11121    11158 1
   11543    11122    11123 1
   11544    11122    11159 1
   11545    11122    11160 1
   11546    11123    11124 1
   11547    11123    11161 1
   11548    11123    11162 1
   11549    11124    11163 1
   11550    11124    11164 1
   11551    11124    11165 1
   11552    11166    11167 1
   11553    11166    11173 1
   11554    11166    11189 1
   11555    11166    11250 1
   11556    11167    11168 1
   11557    11167    11171 1
   11558    11168    11169 1
   11559    11168    11172 1
   11560    11169    11170 1
   11561    11170    11171 1
   11562    11171    11177 1
   11563    11172    11173 1
   11564    11172    11176 1
   11565    11173    11174 1
   11566    11174    11175 1
   11567    11174    11178 1
   11568    11175    11176 1
   11569    11175    11181 1
   11570    11179    11180 1
   11571    11179    11187 1
   11572    11180    11181 1
   11573    11180    11188 1
   11574    11181    11182 1
   11575    11182    11183 1
   11576    11182    11186 1
   11577    11183    11184 1
   11578    11184    11185 1
   11579    11185    11186 1
   11580    11186    11187 1
   11581    11187    11315 1
   11582    11189    11190 1
   11583    11189    11209 1
   11584    11189    11210 1
   11585    11190    11191 1
   11586    11190    11201 1
   11587    11190    11211 1
   11588    11191    11192 1
   11589    11191    11212 1
   11590    11191    11213 1
   11591    11192    11193 1
   11592    11192    11214 1
   11593    11192    11215 1
   11594    11193    11194 1
   11595    11193    11216 1
   11596    11193    11217 1
   11597    11194    11195 1
   11598    11194    11218 1
   11599    11194    11219 1
   11600    11195    11196 1
   11601    11195    11220 1
   11602    11195    11221 1
   11603    11196    11197 1
   11604    11196    11222 1
   11605    11196    11223 1
   11606    11197    11198 1
   11607    11197    11224 1
   11608    11197    11225 1
   11609    11198    11199 1
   11610    11198    11226 1
   11611    11198    11227 1
   11612    11199    11200 1
   11613    11199    11228 1
   11614    11199    11229 1
   11615    11200    11230 1
   11616    11200    11231 1
   11617    11200    11232 1
   11618    11201    11202 1
   11619    11201    11233 1
   11620    11201    11234 1
   11621    11202    11203 1
   11622    11202    11235 1
   11623    11202    11236 1
   11624    11203    11204 1
   11625    11203    11237 1
   11626    11203    11238 1
   11627    11204    11205 1
   11628    11204    11239 1
   11629    11204    11240 1
   11630    11205    11206 1
   11631    11205    11241 1
   11632    11205    11242 1
   11633    11206    11207 1
   11634    11206    11243 1
   11635    11206    11244 1
   11636    11207    11208 1
   11637    11207    11245 1
   11638    11207    11246 1
   11639    11208    11247 1
   11640    11208    11248 1
   11641    11208    11249 1
   11642    11250    11251 1
   11643    11250    11270 1
   11644    11250    11271 1
   11645    11251    11252 1
   11646    11251    11262 1
   11647    11251    11272 1
   11648    11252    11253 1
   11649    11252    11273 1
   11650    11252    11274 1
   11651    11253    11254 1
   11652    11253    11275 1
   11653    11253    11276 1
   11654    11254    11255 1
   11655    11254    11277 1
   11656    11254    11278 1
   11657    11255    11256 1
   11658    11255    11279 1
   11659    11255    11280 1
   11660    11256    11257 1
   11661    11256    11281 1
   11662    11256    11282 1
   11663    11257    11258 1
   11664    11257    11283 1
   11665    11257    11284 1
   11666    11258    11259 1
   11667    11258    11285 1
   11668    11258    11286 1
   11669    11259    11260 1
   11670    11259    11287 1
   11671    11259    11288 1
   11672    11260    11261 1
   11673    11260    11289 1
   11674    11260    11290 1
   11675    11261    11291 1
   11676    11261    11292 1
   11677    11261    11293 1
   11678    11262    11263 1
   11679    11262    11294 1
   11680    11262    11295 1
   11681    11263    11264 1
   11682    11263    11296 1
   11683    11263    11297 1
   11684    11264    11265 1
   11685    11264    11298 1
   11686    11264    11299 1
   11687    11265    11266 1
   11688    11265    11300 1
   11689    11265    11301 1
   11690    11266    11267 1
   11691    11266    11302 1
   11692    11266    11303 1
   11693    11267    11268 1
   11694    11267    11304 1
   11695    11267    11305 1
   11696    11268    11269 1
   11697    11268    11306 1
   11698    11268    11307 1
   11699    11269    11308 1
   11700    11269    11309 1
   11701    11269    11310 1
   11702    11311    11312 1
   11703    11311    11318 1
   11704    11311    11334 1
   11705    11311    11395 1
   11706    11312    11313 1
   11707    11312    11316 1
   11708    11313    11314 1
   11709    11313    11317 1
   11710    11314    11315 1
   11711    11315    11316 1
   11712    11316    11322 1
   11713    11317    11318 1
   11714    11317    11321 1
   11715    11318    11319 1
   11716    11319    11320 1
   11717    11319    11323 1
   11718    11320    11321 1
   11719    11320    11326 1
   11720    11324    11325 1
   11721    11324    11332 1
   11722    11325    11326 1
   11723    11325    11333 1
   11724    11326    11327 1
   11725    11327    11328 1
   11726    11327    11331 1
   11727    11328    11329 1
   11728    11329    11330 1
   11729    11330    11331 1
   11730    11331    11332 1
   11731    11332    11460 1
   11732    11334    11335 1
   11733    11334    11354 1
   11734    11334    11355 1
   11735    11335    11336 1
   11736    11335    11346 1
   11737    11335    11356 1
   11738    11336    11337 1
   11739    11336    11357 1
   11740    11336    11358 1
   11741    11337    11338 1
   11742    11337    11359 1
   11743    11337    11360 1
   11744    11338    11339 1
   11745    11338    11361 1
   11746    11338    11362 1
   11747    11339    11340 1
   11748    11339    11363 1
   11749    11339    11364 1
   11750    11340    11341 1
   11751    11340    11365 1
   11752    11340    11366 1
   11753    11341    11342 1
   11754    11341    11367 1
   11755    11341    11368 1
   11756    11342    11343 1
   11757    11342    11369 1
   11758    11342    11370 1
   11759    11343    11344 1
   11760    11343    11371 1
   11761    11343    11372 1
   11762    11344    11345 1
   11763    11344    11373 1
   11764    11344    11374 1
   11765    11345    11375 1
   11766    11345    11376 1
   11767    11345    11377 1
   11768    11346    11347 1
   11769    11346    11378 1
   11770    11346    11379 1
   11771    11347    11348 1
   11772    11347    11380 1
   11773    11347    11381 1
   11774    11348    11349 1
   11775    11348    11382 1
   11776    11348    11383 1
   11777    11349    11350 1
   11778    11349    11384 1
   11779    11349    11385 1
   11780    11350    11351 1
   11781    11350    11386 1
   11782    11350    11387 1
   11783    11351    11352 1
   11784    11351    11388 1
   11785    11351    11389 1
   11786    11352    11353 1
   11787    11352    11390 1
   11788    11352    11391 1
   11789    11353    11392 1
   11790    11353    11393 1
   11791    11353    11394 1
   11792    11395    11396 1
   11793    11395    11415 1
   11794    11395    11416 1
   11795    11396    11397 1
   11796    11396    11407 1
   11797    11396    11417 1
   11798    11397    11398 1
   11799    11397    11418 1
   11800    11397    11419 1
   11801    11398    11399 1
   11802    11398    11420 1
   11803    11398    11421 1
   11804    11399    11400 1
   11805    11399    11422 1
   11806    11399    11423 1
   11807    11400    11401 1
   11808    11400    11424 1
   11809    11400    11425 1
   11810    11401    11402 1
   11811    11401    11426 1
   11812    11401    11427 1
   11813    11402    11403 1
   11814    11402    11428 1
   11815    11402    11429 1
   11816    11403    11404 1
   11817    11403    11430 1
   11818    11403    11431 1
   11819    11404    11405 1
   11820    11404    11432 1
   11821    11404    11433 1
   11822    11405    11406 1
   11823    11405    11434 1
   11824    11405    11435 1
   11825    11406    11436 1
   11826    11406    11437 1
   11827    11406    11438 1
   11828    11407    11408 1
   11829    11407    11439 1
   11830    11407    11440 1
   11831    11408    11409 1
   11832    11408    11441 1
   11833    11408    11442 1
   11834    11409    11410 1
   11835    11409    11443 1
   11836    11409    11444 1
   11837    11410    11411 1
   11838    11410    11445 1
   11839    11410    11446 1
   11840    11411    11412 1
   11841    11411    11447 1
   11842    11411    11448 1
   11843    11412    11413 1
   11844    11412    11449 1
   11845    11412    11450 1
   11846    11413    11414 1
   11847    11413    11451 1
   11848    11413    11452 1
   11849    11414    11453 1
   11850    11414    11454 1
   11851    11414    11455 1
   11852    11456    11457 1
   11853    11456    11463 1
   11854    11456    11479 1
   11855    11456    11540 1
   11856    11457    11458 1
   11857    11457    11461 1
   11858    11458    11459 1
   11859    11458    11462 1
   11860    11459    11460 1
   11861    11460    11461 1
   11862    11461    11467 1
   11863    11462    11463 1
   11864    11462    11466 1
   11865    11463    11464 1
   11866    11464    11465 1
   11867    11464    11468 1
   11868    11465    11466 1
   11869    11465    11471 1
   11870    11469    11470 1
   11871    11469    11477 1
   11872    11470    11471 1
   11873    11470    11478 1
   11874    11471    11472 1
   11875    11472    11473 1
   11876    11472    11476 1
   11877    11473    11474 1
   11878    11474    11475 1
   11879    11475    11476 1
   11880    11476    11477 1
   11881    11477    11605 1
   11882    11479    11480 1
   11883    11479    11499 1
   11884    11479    11500 1
   11885    11480    11481 1
   11886    11480    11491 1
   11887    11480    11501 1
   11888    11481    11482 1
   11889    11481    11502 1
   11890    11481    11503 1
   11891    11482    11483 1
   11892    11482    11504 1
   11893    11482    11505 1
   11894    11483    11484 1
   11895    11483    11506 1
   11896    11483    11507 1
   11897    11484    11485 1
   11898    11484    11508 1
   11899    11484    11509 1
   11900    11485    11486 1
   11901    11485    11510 1
   11902    11485    11511 1
   11903    11486    11487 1
   11904    11486    11512 1
   11905    11486    11513 1
   11906    11487    11488 1
   11907    11487    11514 1
   11908    11487    11515 1
   11909    11488    11489 1
   11910    11488    11516 1
   11911    11488    11517 1
   11912    11489    11490 1
   11913    11489    11518 1
   11914    11489    11519 1
   11915    11490    11520 1
   11916    11490    11521 1
   11917    11490    11522 1
   11918    11491    11492 1
   11919    11491    11523 1
   11920    11491    11524 1
   11921    11492    11493 1
   11922    11492    11525 1
   11923    11492    11526 1
   11924    11493    11494 1
   11925    11493    11527 1
   11926    11493    11528 1
   11927    11494    11495 1
   11928    11494    11529 1
   11929    11494    11530 1
   11930    11495    11496 1
   11931    11495    11531 1
   11932    11495    11532 1
   11933    11496    11497 1
   11934    11496    11533 1
   11935    11496    11534 1
   11936    11497    11498 1
   11937    11497    11535 1
   11938    11497    11536 1
   11939    11498    11537 1
   11940    11498    11538 1
   11941    11498    11539 1
   11942    11540    11541 1
   11943    11540    11560 1
   11944    11540    11561 1
   11945    11541    11542 1
   11946    11541    11552 1
   11947    11541    11562 1
   11948    11542    11543 1
   11949    11542    11563 1
   11950    11542    11564 1
   11951    11543    11544 1
   11952    11543    11565 1
   11953    11543    11566 1
   11954    11544    11545 1
   11955    11544    11567 1
   11956    11544    11568 1
   11957    11545    11546 1
   11958    11545    11569 1
   11959    11545    11570 1
   11960    11546    11547 1
   11961    11546    11571 1
   11962    11546    11572 1
   11963    11547    11548 1
   11964    11547    11573 1
   11965    11547    11574 1
   11966    11548    11549 1
   11967    11548    11575 1
   11968    11548    11576 1
   11969    11549    11550 1
   11970    11549    11577 1
   11971    11549    11578 1
   11972    11550    11551 1
   11973    11550    11579 1
   11974    11550    11580 1
   11975    11551    11581 1
   11976    11551    11582 1
   11977    11551    11583 1
   11978    11552    11553 1
   11979    11552    11584 1
   11980    11552    11585 1
   11981    11553    11554 1
   11982    11553    11586 1
   11983    11553    11587 1
   11984    11554    11555 1
   11985    11554    11588 1
   11986    11554    11589 1
   11987    11555    11556 1
   11988    11555    11590 1
   11989    11555    11591 1
   11990    11556    11557 1
   11991    11556    11592 1
   11992    11556    11593 1
   11993    11557    11558 1
   11994    11557    11594 1
   11995    11557    11595 1
   11996    11558    11559 1
   11997    11558    11596 1
   11998    11558    11597 1
   11999    11559    11598 1
   12000    11559    11599 1
   12001    11559    11600 1
   12002    11601    11602 1
   12003    11601    11608 1
   12004    11601    11624 1
   12005    11601    11685 1
   12006    11602    11603 1
   12007    11602    11606 1
   12008    11603    11604 1
   12009    11603    11607 1
   12010    11604    11605 1
   12011    11605    11606 1
   12012    11606    11612 1
   12013    11607    11608 1
   12014    11607    11611 1
   12015    11608    11609 1
   12016    11609    11610 1
   12017    11609    11613 1
   12018    11610    11611 1
   12019    11610    11616 1
   12020    11614    11615 1
   12021    11614    11622 1
   12022    11615    11616 1
   12023    11615    11623 1
   12024    11616    11617 1
   12025    11617    11618 1
   12026    11617    11621 1
   12027    11618    11619 1
   12028    11619    11620 1
   12029    11620    11621 1
   12030    11621    11622 1
   12031    11622    11750 1
   12032    11624    11625 1
   12033    11624    11644 1
   12034    11624    11645 1
   12035    11625    11626 1
   12036    11625    11636 1
   12037    11625    11646 1
   12038    11626    11627 1
   12039    11626    11647 1
   12040    11626    11648 1
   12041    11627    11628 1
   12042    11627    11649 1
   12043    11627    11650 1
   12044    11628    11629 1
   12045    11628    11651 1
   12046    11628    11652 1
   12047    11629    11630 1
   12048    11629    11653 1
   12049    11629    11654 1
   12050    11630    11631 1
   12051    11630    11655 1
   12052    11630    11656 1
   12053    11631    11632 1
   12054    11631    11657 1
   12055    11631    11658 1
   12056    11632    11633 1
   12057    11632    11659 1
   12058    11632    11660 1
   12059    11633    11634 1
   12060    11633    11661 1
   12061    11633    11662 1
   12062    11634    11635 1
   12063    11634    11663 1
   12064    11634    11664 1
   12065    11635    11665 1
   12066    11635    11666 1
   12067    11635    11667 1
   12068    11636    11637 1
   12069    11636    11668 1
   12070    11636    11669 1
   12071    11637    11638 1
   12072    11637    11670 1
   12073    11637    11671 1
   12074    11638    11639 1
   12075    11638    11672 1
   12076    11638    11673 1
   12077    11639    11640 1
   12078    11639    11674 1
   12079    11639    11675 1
   12080    11640    11641 1
   12081    11640    11676 1
   12082    11640    11677 1
   12083    11641    11642 1
   12084    11641    11678 1
   12085    11641    11679 1
   12086    11642    11643 1
   12087    11642    11680 1
   12088    11642    11681 1
   12089    11643    11682 1
   12090    11643    11683 1
   12091    11643    11684 1
   12092    11685    11686 1
   12093    11685    11705 1
   12094    11685    11706 1
   12095    11686    11687 1
   12096    11686    11697 1
   12097    11686    11707 1
   12098    11687    11688 1
   12099    11687    11708 1
   12100    11687    11709 1
   12101    11688    11689 1
   12102    11688    11710 1
   12103    11688    11711 1
   12104    11689    11690 1
   12105    11689    11712 1
   12106    11689    11713 1
   12107    11690    11691 1
   12108    11690    11714 1
   12109    11690    11715 1
   12110    11691    11692 1
   12111    11691    11716 1
   12112    11691    11717 1
   12113    11692    11693 1
   12114    11692    11718 1
   12115    11692    11719 1
   12116    11693    11694 1
   12117    11693    11720 1
   12118    11693    11721 1
   12119    11694    11695 1
   12120    11694    11722 1
   12121    11694    11723 1
   12122    11695    11696 1
   12123    11695    11724 1
   12124    11695    11725 1
   12125    11696    11726 1
   12126    11696    11727 1
   12127    11696    11728 1
   12128    11697    11698 1
   12129    11697    11729 1
   12130    11697    11730 1
   12131    11698    11699 1
   12132    11698    11731 1
   12133    11698    11732 1
   12134    11699    11700 1
   12135    11699    11733 1
   12136    11699    11734 1
   12137    11700    11701 1
   12138    11700    11735 1
   12139    11700    11736 1
   12140    11701    11702 1
   12141    11701    11737 1
   12142    11701    11738 1
   12143    11702    11703 1
   12144    11702    11739 1
   12145    11702    11740 1
   12146    11703    11704 1
   12147    11703    11741 1
   12148    11703    11742 1
   12149    11704    11743 1
   12150    11704    11744 1
   12151    11704    11745 1
   12152    11746    11747 1
   12153    11746    11753 1
   12154    11746    11769 1
   12155    11746    11830 1
   12156    11747    11748 1
   12157    11747    11751 1
   12158    11748    11749 1
   12159    11748    11752 1
   12160    11749    11750 1
   12161    11750    11751 1
   12162    11751    11757 1
   12163    11752    11753 1
   12164    11752    11756 1
   12165    11753    11754 1
   12166    11754    11755 1
   12167    11754    11758 1
   12168    11755    11756 1
   12169    11755    11761 1
   12170    11759    11760 1
   12171    11759    11767 1
   12172    11760    11761 1
   12173    11760    11768 1
   12174    11761    11762 1
   12175    11762    11763 1
   12176    11762    11766 1
   12177    11763    11764 1
   12178    11764    11765 1
   12179    11765    11766 1
   12180    11766    11767 1
   12181    11767    11895 1
   12182    11769    11770 1
   12183    11769    11789 1
   12184    11769    11790 1
   12185    11770    11771 1
   12186    11770    11781 1
   12187    11770    11791 1
   12188    11771    11772 1
   12189    11771    11792 1
   12190    11771    11793 1
   12191    11772    11773 1
   12192    11772    11794 1
   12193    11772    11795 1
   12194    11773    11774 1
   12195    11773    11796 1
   12196    11773    11797 1
   12197    11774    11775 1
   12198    11774    11798 1
   12199    11774    11799 1
   12200    11775    11776 1
   12201    11775    11800 1
   12202    11775    11801 1
   12203    11776    11777 1
   12204    11776    11802 1
   12205    11776    11803 1
   12206    11777    11778 1
   12207    11777    11804 1
   12208    11777    11805 1
   12209    11778    11779 1
   12210    11778    11806 1
   12211    11778    11807 1
   12212    11779    11780 1
   12213    11779    11808 1
   12214    11779    11809 1
   12215    11780    11810 1
   12216    11780    11811 1
   12217    11780    11812 1
   12218    11781    11782 1
   12219    11781    11813 1
   12220    11781    11814 1
   12221    11782    11783 1
   12222    11782    11815 1
   12223    11782    11816 1
   12224    11783    11784 1
   12225    11783    11817 1
   12226    11783    11818 1
   12227    11784    11785 1
   12228    11784    11819 1
   12229    11784    11820 1
   12230    11785    11786 1
   12231    11785    11821 1
   12232    11785    11822 1
   12233    11786    11787 1
   12234    11786    11823 1
   12235    11786    11824 1
   12236    11787    11788 1
   12237    11787    11825 1
   12238    11787    11826 1
   12239    11788    11827 1
   12240    11788    11828 1
   12241    11788    11829 1
   12242    11830    11831 1
   12243    11830    11850 1
   12244    11830    11851 1
   12245    11831    11832 1
   12246    11831    11842 1
   12247    11831    11852 1
   12248    11832    11833 1
   12249    11832    11853 1
   12250    11832    11854 1
   12251    11833    11834 1
   12252    11833    11855 1
   12253    11833    11856 1
   12254    11834    11835 1
   12255    11834    11857 1
   12256    11834    11858 1
   12257    11835    11836 1
   12258    11835    11859 1
   12259    11835    11860 1
   12260    11836    11837 1
   12261    11836    11861 1
   12262    11836    11862 1
   12263    11837    11838 1
   12264    11837    11863 1
   12265    11837    11864 1
   12266    11838    11839 1
   12267    11838    11865 1
   12268    11838    11866 1
   12269    11839    11840 1
   12270    11839    11867 1
   12271    11839    11868 1
   12272    11840    11841 1
   12273    11840    11869 1
   12274    11840    11870 1
   12275    11841    11871 1
   12276    11841    11872 1
   12277    11841    11873 1
   12278    11842    11843 1
   12279    11842    11874 1
   12280    11842    11875 1
   12281    11843    11844 1
   12282    11843    11876 1
   12283    11843    11877 1
   12284    11844    11845 1
   12285    11844    11878 1
   12286    11844    11879 1
   12287    11845    11846 1
   12288    11845    11880 1
   12289    11845    11881 1
   12290    11846    11847 1
   12291    11846    11882 1
   12292    11846    11883 1
   12293    11847    11848 1
   12294    11847    11884 1
   12295    11847    11885 1
   12296    11848    11849 1
   12297    11848    11886 1
   12298    11848    11887 1
   12299    11849    11888 1
   12300    11849    11889 1
   12301    11849    11890 1
   12302    11891    11892 1
   12303    11891    11898 1
   12304    11891    11914 1
   12305    11891    11975 1
   12306    11892    11893 1
   12307    11892    11896 1
   12308    11893    11894 1
   12309    11893    11897 1
   12310    11894    11895 1
   12311    11895    11896 1
   12312    11896    11902 1
   12313    11897    11898 1
   12314    11897    11901 1
   12315    11898    11899 1
   12316    11899    11900 1
   12317    11899    11903 1
   12318    11900    11901 1
   12319    11900    11906 1
   12320    11904    11905 1
   12321    11904    11912 1
   12322    11905    11906 1
   12323    11905    11913 1
   12324    11906    11907 1
   12325    11907    11908 1
   12326    11907    11911 1
   12327    11908    11909 1
   12328    11909    11910 1
   12329    11910    11911 1
   12330    11911    11912 1
   12331    11912    12040 1
   12332    11914    11915 1
   12333    11914    11934 1
   12334    11914    11935 1
   12335    11915    11916 1
   12336    11915    11926 1
   12337    11915    11936 1
   12338    11916    11917 1
   12339    11916    11937 1
   12340    11916    11938 1
   12341    11917    11918 1
   12342    11917    11939 1
   12343    11917    11940 1
   12344    11918    11919 1
   12345    11918    11941 1
   12346    11918    11942 1
   12347    11919    11920 1
   12348    11919    11943 1
   12349    11919    11944 1
   12350    11920    11921 1
   12351    11920    11945 1
   12352    11920    11946 1
   12353    11921    11922 1
   12354    11921    11947 1
   12355    11921    11948 1
   12356    11922    11923 1
   12357    11922    11949 1
   12358    11922    11950 1
   12359    11923    11924 1
   12360    11923    11951 1
   12361    11923    11952 1
   12362    11924    11925 1
   12363    11924    11953 1
   12364    11924    11954 1
   12365    11925    11955 1
   12366    11925    11956 1
   12367    11925    11957 1
   12368    11926    11927 1
   12369    11926    11958 1
   12370    11926    11959 1
   12371    11927    11928 1
   12372    11927    11960 1
   12373    11927    11961 1
   12374    11928    11929 1
   12375    11928    11962 1
   12376    11928    11963 1
   12377    11929    11930 1
   12378    11929    11964 1
   12379    11929    11965 1
   12380    11930    11931 1
   12381    11930    11966 1
   12382    11930    11967 1
   12383    11931    11932 1
   12384    11931    11968 1
   12385    11931    11969 1
   12386    11932    11933 1
   12387    11932    11970 1
   12388    11932    11971 1
   12389    11933    11972 1
   12390    11933    11973 1
   12391    11933    11974 1
   12392    11975    11976 1
   12393    11975    11995 1
   12394    11975    11996 1
   12395    11976    11977 1
   12396    11976    11987 1
   12397    11976    11997 1
   12398    11977    11978 1
   12399    11977    11998 1
   12400    11977    11999 1
   12401    11978    11979 1
   12402    11978    12000 1
   12403    11978    12001 1
   12404    11979    11980 1
   12405    11979    12002 1
   12406    11979    12003 1
   12407    11980    11981 1
   12408    11980    12004 1
   12409    11980    12005 1
   12410    11981    11982 1
   12411    11981    12006 1
   12412    11981    12007 1
   12413    11982    11983 1
   12414    11982    12008 1
   12415    11982    12009 1
   12416    11983    11984 1
   12417    11983    12010 1
   12418    11983    12011 1
   12419    11984    11985 1
   12420    11984    12012 1
   12421    11984    12013 1
   12422    11985    11986 1
   12423    11985    12014 1
   12424    11985    12015 1
   12425    11986    12016 1
   12426    11986    12017 1
   12427    11986    12018 1
   12428    11987    11988 1
   12429    11987    12019 1
   12430    11987    12020 1
   12431    11988    11989 1
   12432    11988    12021 1
   12433    11988    12022 1
   12434    11989    11990 1
   12435    11989    12023 1
   12436    11989    12024 1
   12437    11990    11991 1
   12438    11990    12025 1
   12439    11990    12026 1
   12440    11991    11992 1
   12441    11991    12027 1
   12442    11991    12028 1
   12443    11992    11993 1
   12444    11992    12029 1
   12445    11992    12030 1
   12446    11993    11994 1
   12447    11993    12031 1
   12448    11993    12032 1
   12449    11994    12033 1
   12450    11994    12034 1
   12451    11994    12035 1
   12452    12036    12037 1
   12453    12036    12043 1
   12454    12036    12059 1
   12455    12036    12120 1
   12456    12037    12038 1
   12457    12037    12041 1
   12458    12038    12039 1
   12459    12038    12042 1
   12460    12039    12040 1
   12461    12040    12041 1
   12462    12041    12047 1
   12463    12042    12043 1
   12464    12042    12046 1
   12465    12043    12044 1
   12466    12044    12045 1
   12467    12044    12048 1
   12468    12045    12046 1
   12469    12045    12051 1
   12470    12049    12050 1
   12471    12049    12057 1
   12472    12050    12051 1
   12473    12050    12058 1
   12474    12051    12052 1
   12475    12052    12053 1
   12476    12052    12056 1
   12477    12053    12054 1
   12478    12054    12055 1
   12479    12055    12056 1
   12480    12056    12057 1
   12481    12057    12185 1
   12482    12059    12060 1
   12483    12059    12079 1
   12484    12059    12080 1
   12485    12060    12061 1
   12486    12060    12071 1
   12487    12060    12081 1
   12488    12061    12062 1
   12489    12061    12082 1
   12490    12061    12083 1
   12491    12062    12063 1
   12492    12062    12084 1
   12493    12062    12085 1
   12494    12063    12064 1
   12495    12063    12086 1
   12496    12063    12087 1
   12497    12064    12065 1
   12498    12064    12088 1
   12499    12064    12089 1
   12500    12065    12066 1
   12501    12065    12090 1
   12502    12065    12091 1
   12503    12066    12067 1
   12504    12066    12092 1
   12505    12066    12093 1
   12506    12067    12068 1
   12507    12067    12094 1
   12508    12067    12095 1
   12509    12068    12069 1
   12510    12068    12096 1
   12511    12068    12097 1
   12512    12069    12070 1
   12513    12069    12098 1
   12514    12069    12099 1
   12515    12070    12100 1
   12516    12070    12101 1
   12517    12070    12102 1
   12518    12071    12072 1
   12519    12071    12103 1
   12520    12071    12104 1
   12521    12072    12073 1
   12522    12072    12105 1
   12523    12072    12106 1
   12524    12073    12074 1
   12525    12073    12107 1
   12526    12073    12108 1
   12527    12074    12075 1
   12528    12074    12109 1
   12529    12074    12110 1
   12530    12075    12076 1
   12531    12075    12111 1
   12532    12075    12112 1
   12533    12076    12077 1
   12534    12076    12113 1
   12535    12076    12114 1
   12536    12077    12078 1
   12537    12077    12115 1
   12538    12077    12116 1
   12539    12078    12117 1
   12540    12078    12118 1
   12541    12078    12119 1
   12542    12120    12121 1
   12543    12120    12140 1
   12544    12120    12141 1
   12545    12121    12122 1
   12546    12121    12132 1
   12547    12121    12142 1
   12548    12122    12123 1
   12549    12122    12143 1
   12550    12122    12144 1
   12551    12123    12124 1
   12552    12123    12145 1
   12553    12123    12146 1
   12554    12124    12125 1
   12555    12124    12147 1
   12556    12124    12148 1
   12557    12125    12126 1
   12558    12125    12149 1
   12559    12125    12150 1
   12560    12126    12127 1
   12561    12126    12151 1
   12562    12126    12152 1
   12563    12127    12128 1
   12564    12127    12153 1
   12565    12127    12154 1
   12566    12128    12129 1
   12567    12128    12155 1
   12568    12128    12156 1
   12569    12129    12130 1
   12570    12129    12157 1
   12571    12129    12158 1
   12572    12130    12131 1
   12573    12130    12159 1
   12574    12130    12160 1
   12575    12131    12161 1
   12576    12131    12162 1
   12577    12131    12163 1
   12578    12132    12133 1
   12579    12132    12164 1
   12580    12132    12165 1
   12581    12133    12134 1
   12582    12133    12166 1
   12583    12133    12167 1
   12584    12134    12135 1
   12585    12134    12168 1
   12586    12134    12169 1
   12587    12135    12136 1
   12588    12135    12170 1
   12589    12135    12171 1
   12590    12136    12137 1
   12591    12136    12172 1
   12592    12136    12173 1
   12593    12137    12138 1
   12594    12137    12174 1
   12595    12137    12175 1
   12596    12138    12139 1
   12597    12138    12176 1
   12598    12138    12177 1
   12599    12139    12178 1
   12600    12139    12179 1
   12601    12139    12180 1
   12602    12181    12182 1
   12603    12181    12188 1
   12604    12181    12204 1
   12605    12181    12265 1
   12606    12182    12183 1
   12607    12182    12186 1
   12608    12183    12184 1
   12609    12183    12187 1
   12610    12184    12185 1
   12611    12185    12186 1
   12612    12186    12192 1
   12613    12187    12188 1
   12614    12187    12191 1
   12615    12188    12189 1
   12616    12189    12190 1
   12617    12189    12193 1
   12618    12190    12191 1
   12619    12190    12196 1
   12620    12194    12195 1
   12621    12194    12202 1
   12622    12195    12196 1
   12623    12195    12203 1
   12624    12196    12197 1
   12625    12197    12198 1
   12626    12197    12201 1
   12627    12198    12199 1
   12628    12199    12200 1
   12629    12200    12201 1
   12630    12201    12202 1
   12631    12202    12330 1
   12632    12204    12205 1
   12633    12204    12224 1
   12634    12204    12225 1
   12635    12205    12206 1
   12636    12205    12216 1
   12637    12205    12226 1
   12638    12206    12207 1
   12639    12206    12227 1
   12640    12206    12228 1
   12641    12207    12208 1
   12642    12207    12229 1
   12643    12207    12230 1
   12644    12208    12209 1
   12645    12208    12231 1
   12646    12208    12232 1
   12647    12209    12210 1
   12648    12209    12233 1
   12649    12209    12234 1
   12650    12210    12211 1
   12651    12210    12235 1
   12652    12210    12236 1
   12653    12211    12212 1
   12654    12211    12237 1
   12655    12211    12238 1
   12656    12212    12213 1
   12657    12212    12239 1
   12658    12212    12240 1
   12659    12213    12214 1
   12660    12213    12241 1
   12661    12213    12242 1
   12662    12214    12215 1
   12663    12214    12243 1
   12664    12214    12244 1
   12665    12215    12245 1
   12666    12215    12246 1
   12667    12215    12247 1
   12668    12216    12217 1
   12669    12216    12248 1
   12670    12216    12249 1
   12671    12217    12218 1
   12672    12217    12250 1
   12673    12217    12251 1
   12674    12218    12219 1
   12675    12218    12252 1
   12676    12218    12253 1
   12677    12219    12220 1
   12678    12219    12254 1
   12679    12219    12255 1
   12680    12220    12221 1
   12681    12220    12256 1
   12682    12220    12257 1
   12683    12221    12222 1
   12684    12221    12258 1
   12685    12221    12259 1
   12686    12222    12223 1
   12687    12222    12260 1
   12688    12222    12261 1
   12689    12223    12262 1
   12690    12223    12263 1
   12691    12223    12264 1
   12692    12265    12266 1
   12693    12265    12285 1
   12694    12265    12286 1
   12695    12266    12267 1
   12696    12266    12277 1
   12697    12266    12287 1
   12698    12267    12268 1
   12699    12267    12288 1
   12700    12267    12289 1
   12701    12268    12269 1
   12702    12268    12290 1
   12703    12268    12291 1
   12704    12269    12270 1
   12705    12269    12292 1
   12706    12269    12293 1
   12707    12270    12271 1
   12708    12270    12294 1
   12709    12270    12295 1
   12710    12271    12272 1
   12711    12271    12296 1
   12712    12271    12297 1
   12713    12272    12273 1
   12714    12272    12298 1
   12715    12272    12299 1
   12716    12273    12274 1
   12717    12273    12300 1
   12718    12273    12301 1
   12719    12274    12275 1
   12720    12274    12302 1
   12721    12274    12303 1
   12722    12275    12276 1
   12723    12275    12304 1
   12724    12275    12305 1
   12725    12276    12306 1
   12726    12276    12307 1
   12727    12276    12308 1
   12728    12277    12278 1
   12729    12277    12309 1
   12730    12277    12310 1
   12731    12278    12279 1
   12732    12278    12311 1
   12733    12278    12312 1
   12734    12279    12280 1
   12735    12279    12313 1
   12736    12279    12314 1
   12737    12280    12281 1
   12738    12280    12315 1
   12739    12280    12316 1
   12740    12281    12282 1
   12741    12281    12317 1
   12742    12281    12318 1
   12743    12282    12283 1
   12744    12282    12319 1
   12745    12282    12320 1
   12746    12283    12284 1
   12747    12283    12321 1
   12748    12283    12322 1
   12749    12284    12323 1
   12750    12284    12324 1
   12751    12284    12325 1
   12752    12326    12327 1
   12753    12326    12333 1
   12754    12326    12349 1
   12755    12326    12410 1
   12756    12327    12328 1
   12757    12327    12331 1
   12758    12328    12329 1
   12759    12328    12332 1
   12760    12329    12330 1
   12761    12330    12331 1
   12762    12331    12337 1
   12763    12332    12333 1
   12764    12332    12336 1
   12765    12333    12334 1
   12766    12334    12335 1
   12767    12334    12338 1
   12768    12335    12336 1
   12769    12335    12341 1
   12770    12339    12340 1
   12771    12339    12347 1
   12772    12340    12341 1
   12773    12340    12348 1
   12774    12341    12342 1
   12775    12342    12343 1
   12776    12342    12346 1
   12777    12343    12344 1
   12778    12344    12345 1
   12779    12345    12346 1
   12780    12346    12347 1
   12781    12347    12475 1
   12782    12349    12350 1
   12783    12349    12369 1
   12784    12349    12370 1
   12785    12350    12351 1
   12786    12350    12361 1
   12787    12350    12371 1
   12788    12351    12352 1
   12789    12351    12372 1
   12790    12351    12373 1
   12791    12352    12353 1
   12792    12352    12374 1
   12793    12352    12375 1
   12794    12353    12354 1
   12795    12353    12376 1
   12796    12353    12377 1
   12797    12354    12355 1
   12798    12354    12378 1
   12799    12354    12379 1
   12800    12355    12356 1
   12801    12355    12380 1
   12802    12355    12381 1
   12803    12356    12357 1
   12804    12356    12382 1
   12805    12356    12383 1
   12806    12357    12358 1
   12807    12357    12384 1
   12808    12357    12385 1
   12809    12358    12359 1
   12810    12358    12386 1
   12811    12358    12387 1
   12812    12359    12360 1
   12813    12359    12388 1
   12814    12359    12389 1
   12815    12360    12390 1
   12816    12360    12391 1
   12817    12360    12392 1
   12818    12361    12362 1
   12819    12361    12393 1
   12820    12361    12394 1
   12821    12362    12363 1
   12822    12362    12395 1
   12823    12362    12396 1
   12824    12363    12364 1
   12825    12363    12397 1
   12826    12363    12398 1
   12827    12364    12365 1
   12828    12364    12399 1
   12829    12364    12400 1
   12830    12365    12366 1
   12831    12365    12401 1
   12832    12365    12402 1
   12833    12366    12367 1
   12834    12366    12403 1
   12835    12366    12404 1
   12836    12367    12368 1
   12837    12367    12405 1
   12838    12367    12406 1
   12839    12368    12407 1
   12840    12368    12408 1
   12841    12368    12409 1
   12842    12410    12411 1
   12843    12410    12430 1
   12844    12410    12431 1
   12845    12411    12412 1
   12846    12411    12422 1
   12847    12411    12432 1
   12848    12412    12413 1
   12849    12412    12433 1
   12850    12412    12434 1
   12851    12413    12414 1
   12852    12413    12435 1
   12853    12413    12436 1
   12854    12414    12415 1
   12855    12414    12437 1
   12856    12414    12438 1
   12857    12415    12416 1
   12858    12415    12439 1
   12859    12415    12440 1
   12860    12416    12417 1
   12861    12416    12441 1
   12862    12416    12442 1
   12863    12417    12418 1
   12864    12417    12443 1
   12865    12417    12444 1
   12866    12418    12419 1
   12867    12418    12445 1
   12868    12418    12446 1
   12869    12419    12420 1
   12870    12419    12447 1
   12871    12419    12448 1
   12872    12420    12421 1
   12873    12420    12449 1
   12874    12420    12450 1
   12875    12421    12451 1
   12876    12421    12452 1
   12877    12421    12453 1
   12878    12422    12423 1
   12879    12422    12454 1
   12880    12422    12455 1
   12881    12423    12424 1
   12882    12423    12456 1
   12883    12423    12457 1
   12884    12424    12425 1
   12885    12424    12458 1
   12886    12424    12459 1
   12887    12425    12426 1
   12888    12425    12460 1
   12889    12425    12461 1
   12890    12426    12427 1
   12891    12426    12462 1
   12892    12426    12463 1
   12893    12427    12428 1
   12894    12427    12464 1
   12895    12427    12465 1
   12896    12428    12429 1
   12897    12428    12466 1
   12898    12428    12467 1
   12899    12429    12468 1
   12900    12429    12469 1
   12901    12429    12470 1
   12902    12471    12472 1
   12903    12471    12478 1
   12904    12471    12494 1
   12905    12471    12555 1
   12906    12472    12473 1
   12907    12472    12476 1
   12908    12473    12474 1
   12909    12473    12477 1
   12910    12474    12475 1
   12911    12475    12476 1
   12912    12476    12482 1
   12913    12477    12478 1
   12914    12477    12481 1
   12915    12478    12479 1
   12916    12479    12480 1
   12917    12479    12483 1
   12918    12480    12481 1
   12919    12480    12486 1
   12920    12484    12485 1
   12921    12484    12492 1
   12922    12485    12486 1
   12923    12485    12493 1
   12924    12486    12487 1
   12925    12487    12488 1
   12926    12487    12491 1
   12927    12488    12489 1
   12928    12489    12490 1
   12929    12490    12491 1
   12930    12491    12492 1
   12931    12492    12620 1
   12932    12494    12495 1
   12933    12494    12514 1
   12934    12494    12515 1
   12935    12495    12496 1
   12936    12495    12506 1
   12937    12495    12516 1
   12938    12496    12497 1
   12939    12496    12517 1
   12940    12496    12518 1
   12941    12497    12498 1
   12942    12497    12519 1
   12943    12497    12520 1
   12944    12498    12499 1
   12945    12498    12521 1
   12946    12498    12522 1
   12947    12499    12500 1
   12948    12499    12523 1
   12949    12499    12524 1
   12950    12500    12501 1
   12951    12500    12525 1
   12952    12500    12526 1
   12953    12501    12502 1
   12954    12501    12527 1
   12955    12501    12528 1
   12956    12502    12503 1
   12957    12502    12529 1
   12958    12502    12530 1
   12959    12503    12504 1
   12960    12503    12531 1
   12961    12503    12532 1
   12962    12504    12505 1
   12963    12504    12533 1
   12964    12504    12534 1
   12965    12505    12535 1
   12966    12505    12536 1
   12967    12505    12537 1
   12968    12506    12507 1
   12969    12506    12538 1
   12970    12506    12539 1
   12971    12507    12508 1
   12972    12507    12540 1
   12973    12507    12541 1
   12974    12508    12509 1
   12975    12508    12542 1
   12976    12508    12543 1
   12977    12509    12510 1
   12978    12509    12544 1
   12979    12509    12545 1
   12980    12510    12511 1
   12981    12510    12546 1
   12982    12510    12547 1
   12983    12511    12512 1
   12984    12511    12548 1
   12985    12511    12549 1
   12986    12512    12513 1
   12987    12512    12550 1
   12988    12512    12551 1
   12989    12513    12552 1
   12990    12513    12553 1
   12991    12513    12554 1
   12992    12555    12556 1
   12993    12555    12575 1
   12994    12555    12576 1
   12995    12556    12557 1
   12996    12556    12567 1
   12997    12556    12577 1
   12998    12557    12558 1
   12999    12557    12578 1
   13000    12557    12579 1
   13001    12558    12559 1
   13002    12558    12580 1
   13003    12558    12581 1
   13004    12559    12560 1
   13005    12559    12582 1
   13006    12559    12583 1
   13007    12560    12561 1
   13008    12560    12584 1
   13009    12560    12585 1
   13010    12561    12562 1
   13011    12561    12586 1
   13012    12561    12587 1
   13013    12562    12563 1
   13014    12562    12588 1
   13015    12562    12589 1
   13016    12563    12564 1
   13017    12563    12590 1
   13018    12563    12591 1
   13019    12564    12565 1
   13020    12564    12592 1
   13021    12564    12593 1
   13022    12565    12566 1
   13023    12565    12594 1
   13024    12565    12595 1
   13025    12566    12596 1
   13026    12566    12597 1
   13027    12566    12598 1
   13028    12567    12568 1
   13029    12567    12599 1
   13030    12567    12600 1
   13031    12568    12569 1
   13032    12568    12601 1
   13033    12568    12602 1
   13034    12569    12570 1
   13035    12569    12603 1
   13036    12569    12604 1
   13037    12570    12571 1
   13038    12570    12605 1
   13039    12570    12606 1
   13040    12571    12572 1
   13041    12571    12607 1
   13042    12571    12608 1
   13043    12572    12573 1
   13044    12572    12609 1
   13045    12572    12610 1
   13046    12573    12574 1
   13047    12573    12611 1
   13048    12573    12612 1
   13049    12574    12613 1
   13050    12574    12614 1
   13051    12574    12615 1
   13052    12616    12617 1
   13053    12616    12623 1
   13054    12616    12639 1
   13055    12616    12700 1
   13056    12617    12618 1
   13057    12617    12621 1
   13058    12618    12619 1
   13059    12618    12622 1
   13060    12619    12620 1
   13061    12620    12621 1
   13062    12621    12627 1
   13063    12622    12623 1
   13064    12622    12626 1
   13065    12623    12624 1
   13066    12624    12625 1
   13067    12624    12628 1
   13068    12625    12626 1
   13069    12625    12631 1
   13070    12629    12630 1
   13071    12629    12637 1
   13072    12630    12631 1
   13073    12630    12638 1
   13074    12631    12632 1
   13075    12632    12633 1
   13076    12632    12636 1
   13077    12633    12634 1
   13078    12634    12635 1
   13079    12635    12636 1
   13080    12636    12637 1
   13081    12637    12765 1
   13082    12639    12640 1
   13083    12639    12659 1
   13084    12639    12660 1
   13085    12640    12641 1
   13086    12640    12651 1
   13087    12640    12661 1
   13088    12641    12642 1
   13089    12641    12662 1
   13090    12641    12663 1
   13091    12642    12643 1
   13092    12642    12664 1
   13093    12642    12665 1
   13094    12643    12644 1
   13095    12643    12666 1
   13096    12643    12667 1
   13097    12644    12645 1
   13098    12644    12668 1
   13099    12644    12669 1
   13100    12645    12646 1
   13101    12645    12670 1
   13102    12645    12671 1
   13103    12646    12647 1
   13104    12646    12672 1
   13105    12646    12673 1
   13106    12647    12648 1
   13107    12647    12674 1
   13108    12647    12675 1
   13109    12648    12649 1
   13110    12648    12676 1
   13111    12648    12677 1
   13112    12649    12650 1
   13113    12649    12678 1
   13114    12649    12679 1
   13115    12650    12680 1
   13116    12650    12681 1
   13117    12650    12682 1
   13118    12651    12652 1
   13119    12651    12683 1
   13120    12651    12684 1
   13121    12652    12653 1
   13122    12652    12685 1
   13123    12652    12686 1
   13124    12653    12654 1
   13125    12653    12687 1
   13126    12653    12688 1
   13127    12654    12655 1
   13128    12654    12689 1
   13129    12654    12690 1
   13130    12655    12656 1
   13131    12655    12691 1
   13132    12655    12692 1
   13133    12656    12657 1
   13134    12656    12693 1
   13135    12656    12694 1
   13136    12657    12658 1
   13137    12657    12695 1
   13138    12657    12696 1
   13139    12658    12697 1
   13140    12658    12698 1
   13141    12658    12699 1
   13142    12700    12701 1
   13143    12700    12720 1
   13144    12700    12721 1
   13145    12701    12702 1
   13146    12701    12712 1
   13147    12701    12722 1
   13148    12702    12703 1
   13149    12702    12723 1
   13150    12702    12724 1
   13151    12703    12704 1
   13152    12703    12725 1
   13153    12703    12726 1
   13154    12704    12705 1
   13155    12704    12727 1
   13156    12704    12728 1
   13157    12705    12706 1
   13158    12705    12729 1
   13159    12705    12730 1
   13160    12706    12707 1
   13161    12706    12731 1
   13162    12706    12732 1
   13163    12707    12708 1
   13164    12707    12733 1
   13165    12707    12734 1
   13166    12708    12709 1
   13167    12708    12735 1
   13168    12708    12736 1
   13169    12709    12710 1
   13170    12709    12737 1
   13171    12709    12738 1
   13172    12710    12711 1
   13173    12710    12739 1
   13174    12710    12740 1
   13175    12711    12741 1
   13176    12711    12742 1
   13177    12711    12743 1
   13178    12712    12713 1
   13179    12712    12744 1
   13180    12712    12745 1
   13181    12713    12714 1
   13182    12713    12746 1
   13183    12713    12747 1
   13184    12714    12715 1
   13185    12714    12748 1
   13186    12714    12749 1
   13187    12715    12716 1
   13188    12715    12750 1
   13189    12715    12751 1
   13190    12716    12717 1
   13191    12716    12752 1
   13192    12716    12753 1
   13193    12717    12718 1
   13194    12717    12754 1
   13195    12717    12755 1
   13196    12718    12719 1
   13197    12718    12756 1
   13198    12718    12757 1
   13199    12719    12758 1
   13200    12719    12759 1
   13201    12719    12760 1
   13202    12761    12762 1
   13203    12761    12768 1
   13204    12761    12784 1
   13205    12761    12845 1
   13206    12762    12763 1
   13207    12762    12766 1
   13208    12763    12764 1
   13209    12763    12767 1
   13210    12764    12765 1
   13211    12765    12766 1
   13212    12766    12772 1
   13213    12767    12768 1
   13214    12767    12771 1
   13215    12768    12769 1
   13216    12769    12770 1
   13217    12769    12773 1
   13218    12770    12771 1
   13219    12770    12776 1
   13220    12774    12775 1
   13221    12774    12782 1
   13222    12775    12776 1
   13223    12775    12783 1
   13224    12776    12777 1
   13225    12777    12778 1
   13226    12777    12781 1
   13227    12778    12779 1
   13228    12779    12780 1
   13229    12780    12781 1
   13230    12781    12782 1
   13231    12782    12910 1
   13232    12784    12785 1
   13233    12784    12804 1
   13234    12784    12805 1
   13235    12785    12786 1
   13236    12785    12796 1
   13237    12785    12806 1
   13238    12786    12787 1
   13239    12786    12807 1
   13240    12786    12808 1
   13241    12787    12788 1
   13242    12787    12809 1
   13243    12787    12810 1
   13244    12788    12789 1
   13245    12788    12811 1
   13246    12788    12812 1
   13247    12789    12790 1
   13248    12789    12813 1
   13249    12789    12814 1
   13250    12790    12791 1
   13251    12790    12815 1
   13252    12790    12816 1
   13253    12791    12792 1
   13254    12791    12817 1
   13255    12791    12818 1
   13256    12792    12793 1
   13257    12792    12819 1
   13258    12792    12820 1
   13259    12793    12794 1
   13260    12793    12821 1
   13261    12793    12822 1
   13262    12794    12795 1
   13263    12794    12823 1
   13264    12794    12824 1
   13265    12795    12825 1
   13266    12795    12826 1
   13267    12795    12827 1
   13268    12796    12797 1
   13269    12796    12828 1
   13270    12796    12829 1
   13271    12797    12798 1
   13272    12797    12830 1
   13273    12797    12831 1
   13274    12798    12799 1
   13275    12798    12832 1
   13276    12798    12833 1
   13277    12799    12800 1
   13278    12799    12834 1
   13279    12799    12835 1
   13280    12800    12801 1
   13281    12800    12836 1
   13282    12800    12837 1
   13283    12801    12802 1
   13284    12801    12838 1
   13285    12801    12839 1
   13286    12802    12803 1
   13287    12802    12840 1
   13288    12802    12841 1
   13289    12803    12842 1
   13290    12803    12843 1
   13291    12803    12844 1
   13292    12845    12846 1
   13293    12845    12865 1
   13294    12845    12866 1
   13295    12846    12847 1
   13296    12846    12857 1
   13297    12846    12867 1
   13298    12847    12848 1
   13299    12847    12868 1
   13300    12847    12869 1
   13301    12848    12849 1
   13302    12848    12870 1
   13303    12848    12871 1
   13304    12849    12850 1
   13305    12849    12872 1
   13306    12849    12873 1
   13307    12850    12851 1
   13308    12850    12874 1
   13309    12850    12875 1
   13310    12851    12852 1
   13311    12851    12876 1
   13312    12851    12877 1
   13313    12852    12853 1
   13314    12852    12878 1
   13315    12852    12879 1
   13316    12853    12854 1
   13317    12853    12880 1
   13318    12853    12881 1
   13319    12854    12855 1
   13320    12854    12882 1
   13321    12854    12883 1
   13322    12855    12856 1
   13323    12855    12884 1
   13324    12855    12885 1
   13325    12856    12886 1
   13326    12856    12887 1
   13327    12856    12888 1
   13328    12857    12858 1
   13329    12857    12889 1
   13330    12857    12890 1
   13331    12858    12859 1
   13332    12858    12891 1
   13333    12858    12892 1
   13334    12859    12860 1
   13335    12859    12893 1
   13336    12859    12894 1
   13337    12860    12861 1
   13338    12860    12895 1
   13339    12860    12896 1
   13340    12861    12862 1
   13341    12861    12897 1
   13342    12861    12898 1
   13343    12862    12863 1
   13344    12862    12899 1
   13345    12862    12900 1
   13346    12863    12864 1
   13347    12863    12901 1
   13348    12863    12902 1
   13349    12864    12903 1
   13350    12864    12904 1
   13351    12864    12905 1
   13352    12906    12907 1
   13353    12906    12913 1
   13354    12906    12929 1
   13355    12906    12990 1
   13356    12907    12908 1
   13357    12907    12911 1
   13358    12908    12909 1
   13359    12908    12912 1
   13360    12909    12910 1
   13361    12910    12911 1
   13362    12911    12917 1
   13363    12912    12913 1
   13364    12912    12916 1
   13365    12913    12914 1
   13366    12914    12915 1
   13367    12914    12918 1
   13368    12915    12916 1
   13369    12915    12921 1
   13370    12919    12920 1
   13371    12919    12927 1
   13372    12920    12921 1
   13373    12920    12928 1
   13374    12921    12922 1
   13375    12922    12923 1
   13376    12922    12926 1
   13377    12923    12924 1
   13378    12924    12925 1
   13379    12925    12926 1
   13380    12926    12927 1
   13381    12927    13055 1
   13382    12929    12930 1
   13383    12929    12949 1
   13384    12929    12950 1
   13385    12930    12931 1
   13386    12930    12941 1
   13387    12930    12951 1
   13388    12931    12932 1
   13389    12931    12952 1
   13390    12931    12953 1
   13391    12932    12933 1
   13392    12932    12954 1
   13393    12932    12955 1
   13394    12933    12934 1
   13395    12933    12956 1
   13396    12933    12957 1
   13397    12934    12935 1
   13398    12934    12958 1
   13399    12934    12959 1
   13400    12935    12936 1
   13401    12935    12960 1
   13402    12935    12961 1
   13403    12936    12937 1
   13404    12936    12962 1
   13405    12936    12963 1
   13406    12937    12938 1
   13407    12937    12964 1
   13408    12937    12965 1
   13409    12938    12939 1
   13410    12938    12966 1
   13411    12938    12967 1
   13412    12939    12940 1
   13413    12939    12968 1
   13414    12939    12969 1
   13415    12940    12970 1
   13416    12940    12971 1
   13417    12940    12972 1
   13418    12941    12942 1
   13419    12941    12973 1
   13420    12941    12974 1
   13421    12942    12943 1
   13422    12942    12975 1
   13423    12942    12976 1
   13424    12943    12944 1
   13425    12943    12977 1
   13426    12943    12978 1
   13427    12944    12945 1
   13428    12944    12979 1
   13429    12944    12980 1
   13430    12945    12946 1
   13431    12945    12981 1
   13432    12945    12982 1
   13433    12946    12947 1
   13434    12946    12983 1
   13435    12946    12984 1
   13436    12947    12948 1
   13437    12947    12985 1
   13438    12947    12986 1
   13439    12948    12987 1
   13440    12948    12988 1
   13441    12948    12989 1
   13442    12990    12991 1
   13443    12990    13010 1
   13444    12990    13011 1
   13445    12991    12992 1
   13446    12991    13002 1
   13447    12991    13012 1
   13448    12992    12993 1
   13449    12992    13013 1
   13450    12992    13014 1
   13451    12993    12994 1
   13452    12993    13015 1
   13453    12993    13016 1
   13454    12994    12995 1
   13455    12994    13017 1
   13456    12994    13018 1
   13457    12995    12996 1
   13458    12995    13019 1
   13459    12995    13020 1
   13460    12996    12997 1
   13461    12996    13021 1
   13462    12996    13022 1
   13463    12997    12998 1
   13464    12997    13023 1
   13465    12997    13024 1
   13466    12998    12999 1
   13467    12998    13025 1
   13468    12998    13026 1
   13469    12999    13000 1
   13470    12999    13027 1
   13471    12999    13028 1
   13472    13000    13001 1
   13473    13000    13029 1
   13474    13000    13030 1
   13475    13001    13031 1
   13476    13001    13032 1
   13477    13001    13033 1
   13478    13002    13003 1
   13479    13002    13034 1
   13480    13002    13035 1
   13481    13003    13004 1
   13482    13003    13036 1
   13483    13003    13037 1
   13484    13004    13005 1
   13485    13004    13038 1
   13486    13004    13039 1
   13487    13005    13006 1
   13488    13005    13040 1
   13489    13005    13041 1
   13490    13006    13007 1
   13491    13006    13042 1
   13492    13006    13043 1
   13493    13007    13008 1
   13494    13007    13044 1
   13495    13007    13045 1
   13496    13008    13009 1
   13497    13008    13046 1
   13498    13008    13047 1
   13499    13009    13048 1
   13500    13009    13049 1
   13501    13009    13050 1
   13502    13051    13052 1
   13503    13051    13058 1
   13504    13051    13074 1
   13505    13051    13135 1
   13506    13052    13053 1
   13507    13052    13056 1
   13508    13053    13054 1
   13509    13053    13057 1
   13510    13054    13055 1
   13511    13055    13056 1
   13512    13056    13062 1
   13513    13057    13058 1
   13514    13057    13061 1
   13515    13058    13059 1
   13516    13059    13060 1
   13517    13059    13063 1
   13518    13060    13061 1
   13519    13060    13066 1
   13520    13064    13065 1
   13521    13064    13072 1
   13522    13065    13066 1
   13523    13065    13073 1
   13524    13066    13067 1
   13525    13067    13068 1
   13526    13067    13071 1
   13527    13068    13069 1
   13528    13069    13070 1
   13529    13070    13071 1
   13530    13071    13072 1
   13531    13072    13200 1
   13532    13074    13075 1
   13533    13074    13094 1
   13534    13074    13095 1
   13535    13075    13076 1
   13536    13075    13086 1
   13537    13075    13096 1
   13538    13076    13077 1
   13539    13076    13097 1
   13540    13076    13098 1
   13541    13077    13078 1
   13542    13077    13099 1
   13543    13077    13100 1
   13544    13078    13079 1
   13545    13078    13101 1
   13546    13078    13102 1
   13547    13079    13080 1
   13548    13079    13103 1
   13549    13079    13104 1
   13550    13080    13081 1
   13551    13080    13105 1
   13552    13080    13106 1
   13553    13081    13082 1
   13554    13081    13107 1
   13555    13081    13108 1
   13556    13082    13083 1
   13557    13082    13109 1
   13558    13082    13110 1
   13559    13083    13084 1
   13560    13083    13111 1
   13561    13083    13112 1
   13562    13084    13085 1
   13563    13084    13113 1
   13564    13084    13114 1
   13565    13085    13115 1
   13566    13085    13116 1
   13567    13085    13117 1
   13568    13086    13087 1
   13569    13086    13118 1
   13570    13086    13119 1
   13571    13087    13088 1
   13572    13087    13120 1
   13573    13087    13121 1
   13574    13088    13089 1
   13575    13088    13122 1
   13576    13088    13123 1
   13577    13089    13090 1
   13578    13089    13124 1
   13579    13089    13125 1
   13580    13090    13091 1
   13581    13090    13126 1
   13582    13090    13127 1
   13583    13091    13092 1
   13584    13091    13128 1
   13585    13091    13129 1
   13586    13092    13093 1
   13587    13092    13130 1
   13588    13092    13131 1
   13589    13093    13132 1
   13590    13093    13133 1
   13591    13093    13134 1
   13592    13135    13136 1
   13593    13135    13155 1
   13594    13135    13156 1
   13595    13136    13137 1
   13596    13136    13147 1
   13597    13136    13157 1
   13598    13137    13138 1
   13599    13137    13158 1
   13600    13137    13159 1
   13601    13138    13139 1
   13602    13138    13160 1
   13603    13138    13161 1
   13604    13139    13140 1
   13605    13139    13162 1
   13606    13139    13163 1
   13607    13140    13141 1
   13608    13140    13164 1
   13609    13140    13165 1
   13610    13141    13142 1
   13611    13141    13166 1
   13612    13141    13167 1
   13613    13142    13143 1
   13614    13142    13168 1
   13615    13142    13169 1
   13616    13143    13144 1
   13617    13143    13170 1
   13618    13143    13171 1
   13619    13144    13145 1
   13620    13144    13172 1
   13621    13144    13173 1
   13622    13145    13146 1
   13623    13145    13174 1
   13624    13145    13175 1
   13625    13146    13176 1
   13626    13146    13177 1
   13627    13146    13178 1
   13628    13147    13148 1
   13629    13147    13179 1
   13630    13147    13180 1
   13631    13148    13149 1
   13632    13148    13181 1
   13633    13148    13182 1
   13634    13149    13150 1
   13635    13149    13183 1
   13636    13149    13184 1
   13637    13150    13151 1
   13638    13150    13185 1
   13639    13150    13186 1
   13640    13151    13152 1
   13641    13151    13187 1
   13642    13151    13188 1
   13643    13152    13153 1
   13644    13152    13189 1
   13645    13152    13190 1
   13646    13153    13154 1
   13647    13153    13191 1
   13648    13153    13192 1
   13649    13154    13193 1
   13650    13154    13194 1
   13651    13154    13195 1
   13652    13196    13197 1
   13653    13196    13203 1
   13654    13196    13219 1
   13655    13196    13280 1
   13656    13197    13198 1
   13657    13197    13201 1
   13658    13198    13199 1
   13659    13198    13202 1
   13660    13199    13200 1
   13661    13200    13201 1
   13662    13201    13207 1
   13663    13202    13203 1
   13664    13202    13206 1
   13665    13203    13204 1
   13666    13204    13205 1
   13667    13204    13208 1
   13668    13205    13206 1
   13669    13205    13211 1
   13670    13209    13210 1
   13671    13209    13217 1
   13672    13210    13211 1
   13673    13210    13218 1
   13674    13211    13212 1
   13675    13212    13213 1
   13676    13212    13216 1
   13677    13213    13214 1
   13678    13214    13215 1
   13679    13215    13216 1
   13680    13216    13217 1
   13681    13217    13345 1
   13682    13219    13220 1
   13683    13219    13239 1
   13684    13219    13240 1
   13685    13220    13221 1
   13686    13220    13231 1
   13687    13220    13241 1
   13688    13221    13222 1
   13689    13221    13242 1
   13690    13221    13243 1
   13691    13222    13223 1
   13692    13222    13244 1
   13693    13222    13245 1
   13694    13223    13224 1
   13695    13223    13246 1
   13696    13223    13247 1
   13697    13224    13225 1
   13698    13224    13248 1
   13699    13224    13249 1
   13700    13225    13226 1
   13701    13225    13250 1
   13702    13225    13251 1
   13703    13226    13227 1
   13704    13226    13252 1
   13705    13226    13253 1
   13706    13227    13228 1
   13707    13227    13254 1
   13708    13227    13255 1
   13709    13228    13229 1
   13710    13228    13256 1
   13711    13228    13257 1
   13712    13229    13230 1
   13713    13229    13258 1
   13714    13229    13259 1
   13715    13230    13260 1
   13716    13230    13261 1
   13717    13230    13262 1
   13718    13231    13232 1
   13719    13231    13263 1
   13720    13231    13264 1
   13721    13232    13233 1
   13722    13232    13265 1
   13723    13232    13266 1
   13724    13233    13234 1
   13725    13233    13267 1
   13726    13233    13268 1
   13727    13234    13235 1
   13728    13234    13269 1
   13729    13234    13270 1
   13730    13235    13236 1
   13731    13235    13271 1
   13732    13235    13272 1
   13733    13236    13237 1
   13734    13236    13273 1
   13735    13236    13274 1
   13736    13237    13238 1
   13737    13237    13275 1
   13738    13237    13276 1
   13739    13238    13277 1
   13740    13238    13278 1
   13741    13238    13279 1
   13742    13280    13281 1
   13743    13280    13300 1
   13744    13280    13301 1
   13745    13281    13282 1
   13746    13281    13292 1
   13747    13281    13302 1
   13748    13282    13283 1
   13749    13282    13303 1
   13750    13282    13304 1
   13751    13283    13284 1
   13752    13283    13305 1
   13753    13283    13306 1
   13754    13284    13285 1
   13755    13284    13307 1
   13756    13284    13308 1
   13757    13285    13286 1
   13758    13285    13309 1
   13759    13285    13310 1
   13760    13286    13287 1
   13761    13286    13311 1
   13762    13286    13312 1
   13763    13287    13288 1
   13764    13287    13313 1
   13765    13287    13314 1
   13766    13288    13289 1
   13767    13288    13315 1
   13768    13288    13316 1
   13769    13289    13290 1
   13770    13289    13317 1
   13771    13289    13318 1
   13772    13290    13291 1
   13773    13290    13319 1
   13774    13290    13320 1
   13775    13291    13321 1
   13776    13291    13322 1
   13777    13291    13323 1
   13778    13292    13293 1
   13779    13292    13324 1
   13780    13292    13325 1
   13781    13293    13294 1
   13782    13293    13326 1
   13783    13293    13327 1
   13784    13294    13295 1
   13785    13294    13328 1
   13786    13294    13329 1
   13787    13295    13296 1
   13788    13295    13330 1
   13789    13295    13331 1
   13790    13296    13297 1
   13791    13296    13332 1
   13792    13296    13333 1
   13793    13297    13298 1
   13794    13297    13334 1
   13795    13297    13335 1
   13796    13298    13299 1
   13797    13298    13336 1
   13798    13298    13337 1
   13799    13299    13338 1
   13800    13299    13339 1
   13801    13299    13340 1
   13802    13341    13342 1
   13803    13341    13348 1
   13804    13341    13364 1
   13805    13341    13425 1
   13806    13342    13343 1
   13807    13342    13346 1
   13808    13343    13344 1
   13809    13343    13347 1
   13810    13344    13345 1
   13811    13345    13346 1
   13812    13346    13352 1
   13813    13347    13348 1
   13814    13347    13351 1
   13815    13348    13349 1
   13816    13349    13350 1
   13817    13349    13353 1
   13818    13350    13351 1
   13819    13350    13356 1
   13820    13354    13355 1
   13821    13354    13362 1
   13822    13355    13356 1
   13823    13355    13363 1
   13824    13356    13357 1
   13825    13357    13358 1
   13826    13357    13361 1
   13827    13358    13359 1
   13828    13359    13360 1
   13829    13360    13361 1
   13830    13361    13362 1
   13831    13362    13490 1
   13832    13364    13365 1
   13833    13364    13384 1
   13834    13364    13385 1
   13835    13365    13366 1
   13836    13365    13376 1
   13837    13365    13386 1
   13838    13366    13367 1
   13839    13366    13387 1
   13840    13366    13388 1
   13841    13367    13368 1
   13842    13367    13389 1
   13843    13367    13390 1
   13844    13368    13369 1
   13845    13368    13391 1
   13846    13368    13392 1
   13847    13369    13370 1
   13848    13369    13393 1
   13849    13369    13394 1
   13850    13370    13371 1
   13851    13370    13395 1
   13852    13370    13396 1
   13853    13371    13372 1
   13854    13371    13397 1
   13855    13371    13398 1
   13856    13372    13373 1
   13857    13372    13399 1
   13858    13372    13400 1
   13859    13373    13374 1
   13860    13373    13401 1
   13861    13373    13402 1
   13862    13374    13375 1
   13863    13374    13403 1
   13864    13374    13404 1
   13865    13375    13405 1
   13866    13375    13406 1
   13867    13375    13407 1
   13868    13376    13377 1
   13869    13376    13408 1
   13870    13376    13409 1
   13871    13377    13378 1
   13872    13377    13410 1
   13873    13377    13411 1
   13874    13378    13379 1
   13875    13378    13412 1
   13876    13378    13413 1
   13877    13379    13380 1
   13878    13379    13414 1
   13879    13379    13415 1
   13880    13380    13381 1
   13881    13380    13416 1
   13882    13380    13417 1
   13883    13381    13382 1
   13884    13381    13418 1
   13885    13381    13419 1
   13886    13382    13383 1
   13887    13382    13420 1
   13888    13382    13421 1
   13889    13383    13422 1
   13890    13383    13423 1
   13891    13383    13424 1
   13892    13425    13426 1
   13893    13425    13445 1
   13894    13425    13446 1
   13895    13426    13427 1
   13896    13426    13437 1
   13897    13426    13447 1
   13898    13427    13428 1
   13899    13427    13448 1
   13900    13427    13449 1
   13901    13428    13429 1
   13902    13428    13450 1
   13903    13428    13451 1
   13904    13429    13430 1
   13905    13429    13452 1
   13906    13429    13453 1
   13907    13430    13431 1
   13908    13430    13454 1
   13909    13430    13455 1
   13910    13431    13432 1
   13911    13431    13456 1
   13912    13431    13457 1
   13913    13432    13433 1
   13914    13432    13458 1
   13915    13432    13459 1
   13916    13433    13434 1
   13917    13433    13460 1
   13918    13433    13461 1
   13919    13434    13435 1
   13920    13434    13462 1
   13921    13434    13463 1
   13922    13435    13436 1
   13923    13435    13464 1
   13924    13435    13465 1
   13925    13436    13466 1
   13926    13436    13467 1
   13927    13436    13468 1
   13928    13437    13438 1
   13929    13437    13469 1
   13930    13437    13470 1
   13931    13438    13439 1
   13932    13438    13471 1
   13933    13438    13472 1
   13934    13439    13440 1
   13935    13439    13473 1
   13936    13439    13474 1
   13937    13440    13441 1
   13938    13440    13475 1
   13939    13440    13476 1
   13940    13441    13442 1
   13941    13441    13477 1
   13942    13441    13478 1
   13943    13442    13443 1
   13944    13442    13479 1
   13945    13442    13480 1
   13946    13443    13444 1
   13947    13443    13481 1
   13948    13443    13482 1
   13949    13444    13483 1
   13950    13444    13484 1
   13951    13444    13485 1
   13952    13486    13487 1
   13953    13486    13493 1
   13954    13486    13509 1
   13955    13486    13570 1
   13956    13487    13488 1
   13957    13487    13491 1
   13958    13488    13489 1
   13959    13488    13492 1
   13960    13489    13490 1
   13961    13490    13491 1
   13962    13491    13497 1
   13963    13492    13493 1
   13964    13492    13496 1
   13965    13493    13494 1
   13966    13494    13495 1
   13967    13494    13498 1
   13968    13495    13496 1
   13969    13495    13501 1
   13970    13499    13500 1
   13971    13499    13507 1
   13972    13500    13501 1
   13973    13500    13508 1
   13974    13501    13502 1
   13975    13502    13503 1
   13976    13502    13506 1
   13977    13503    13504 1
   13978    13504    13505 1
   13979    13505    13506 1
   13980    13506    13507 1
   13981    13507    13635 1
   13982    13509    13510 1
   13983    13509    13529 1
   13984    13509    13530 1
   13985    13510    13511 1
   13986    13510    13521 1
   13987    13510    13531 1
   13988    13511    13512 1
   13989    13511    13532 1
   13990    13511    13533 1
   13991    13512    13513 1
   13992    13512    13534 1
   13993    13512    13535 1
   13994    13513    13514 1
   13995    13513    13536 1
   13996    13513    13537 1
   13997    13514    13515 1
   13998    13514    13538 1
   13999    13514    13539 1
   14000    13515    13516 1
   14001    13515    13540 1
   14002    13515    13541 1
   14003    13516    13517 1
   14004    13516    13542 1
   14005    13516    13543 1
   14006    13517    13518 1
   14007    13517    13544 1
   14008    13517    13545 1
   14009    13518    13519 1
   14010    13518    13546 1
   14011    13518    13547 1
   14012    13519    13520 1
   14013    13519    13548 1
   14014    13519    13549 1
   14015    13520    13550 1
   14016    13520    13551 1
   14017    13520    13552 1
   14018    13521    13522 1
   14019    13521    13553 1
   14020    13521    13554 1
   14021    13522    13523 1
   14022    13522    13555 1
   14023    13522    13556 1
   14024    13523    13524 1
   14025    13523    13557 1
   14026    13523    13558 1
   14027    13524    13525 1
   14028    13524    13559 1
   14029    13524    13560 1
   14030    13525    13526 1
   14031    13525    13561 1
   14032    13525    13562 1
   14033    13526    13527 1
   14034    13526    13563 1
   14035    13526    13564 1
   14036    13527    13528 1
   14037    13527    13565 1
   14038    13527    13566 1
   14039    13528    13567 1
   14040    13528    13568 1
   14041    13528    13569 1
   14042    13570    13571 1
   14043    13570    13590 1
   14044    13570    13591 1
   14045    13571    13572 1
   14046    13571    13582 1
   14047    13571    13592 1
   14048    13572    13573 1
   14049    13572    13593 1
   14050    13572    13594 1
   14051    13573    13574 1
   14052    13573    13595 1
   14053    13573    13596 1
   14054    13574    13575 1
   14055    13574    13597 1
   14056    13574    13598 1
   14057    13575    13576 1
   14058    13575    13599 1
   14059    13575    13600 1
   14060    13576    13577 1
   14061    13576    13601 1
   14062    13576    13602 1
   14063    13577    13578 1
   14064    13577    13603 1
   14065    13577    13604 1
   14066    13578    13579 1
   14067    13578    13605 1
   14068    13578    13606 1
   14069    13579    13580 1
   14070    13579    13607 1
   14071    13579    13608 1
   14072    13580    13581 1
   14073    13580    13609 1
   14074    13580    13610 1
   14075    13581    13611 1
   14076    13581    13612 1
   14077    13581    13613 1
   14078    13582    13583 1
   14079    13582    13614 1
   14080    13582    13615 1
   14081    13583    13584 1
   14082    13583    13616 1
   14083    13583    13617 1
   14084    13584    13585 1
   14085    13584    13618 1
   14086    13584    13619 1
   14087    13585    13586 1
   14088    13585    13620 1
   14089    13585    13621 1
   14090    13586    13587 1
   14091    13586    13622 1
   14092    13586    13623 1
   14093    13587    13588 1
   14094    13587    13624 1
   14095    13587    13625 1
   14096    13588    13589 1
   14097    13588    13626 1
   14098    13588    13627 1
   14099    13589    13628 1
   14100    13589    13629 1
   14101    13589    13630 1
   14102    13631    13632 1
   14103    13631    13638 1
   14104    13631    13654 1
   14105    13631    13715 1
   14106    13632    13633 1
   14107    13632    13636 1
   14108    13633    13634 1
   14109    13633    13637 1
   14110    13634    13635 1
   14111    13635    13636 1
   14112    13636    13642 1
   14113    13637    13638 1
   14114    13637    13641 1
   14115    13638    13639 1
   14116    13639    13640 1
   14117    13639    13643 1
   14118    13640    13641 1
   14119    13640    13646 1
   14120    13644    13645 1
   14121    13644    13652 1
   14122    13645    13646 1
   14123    13645    13653 1
   14124    13646    13647 1
   14125    13647    13648 1
   14126    13647    13651 1
   14127    13648    13649 1
   14128    13649    13650 1
   14129    13650    13651 1
   14130    13651    13652 1
   14131    13652    13780 1
   14132    13654    13655 1
   14133    13654    13674 1
   14134    13654    13675 1
   14135    13655    13656 1
   14136    13655    13666 1
   14137    13655    13676 1
   14138    13656    13657 1
   14139    13656    13677 1
   14140    13656    13678 1
   14141    13657    13658 1
   14142    13657    13679 1
   14143    13657    13680 1
   14144    13658    13659 1
   14145    13658    13681 1
   14146    13658    13682 1
   14147    13659    13660 1
   14148    13659    13683 1
   14149    13659    13684 1
   14150    13660    13661 1
   14151    13660    13685 1
   14152    13660    13686 1
   14153    13661    13662 1
   14154    13661    13687 1
   14155    13661    13688 1
   14156    13662    13663 1
   14157    13662    13689 1
   14158    13662    13690 1
   14159    13663    13664 1
   14160    13663    13691 1
   14161    13663    13692 1
   14162    13664    13665 1
   14163    13664    13693 1
   14164    13664    13694 1
   14165    13665    13695 1
   14166    13665    13696 1
   14167    13665    13697 1
   14168    13666    13667 1
   14169    13666    13698 1
   14170    13666    13699 1
   14171    13667    13668 1
   14172    13667    13700 1
   14173    13667    13701 1
   14174    13668    13669 1
   14175    13668    13702 1
   14176    13668    13703 1
   14177    13669    13670 1
   14178    13669    13704 1
   14179    13669    13705 1
   14180    13670    13671 1
   14181    13670    13706 1
   14182    13670    13707 1
   14183    13671    13672 1
   14184    13671    13708 1
   14185    13671    13709 1
   14186    13672    13673 1
   14187    13672    13710 1
   14188    13672    13711 1
   14189    13673    13712 1
   14190    13673    13713 1
   14191    13673    13714 1
   14192    13715    13716 1
   14193    13715    13735 1
   14194    13715    13736 1
   14195    13716    13717 1
   14196    13716    13727 1
   14197    13716    13737 1
   14198    13717    13718 1
   14199    13717    13738 1
   14200    13717    13739 1
   14201    13718    13719 1
   14202    13718    13740 1
   14203    13718    13741 1
   14204    13719    13720 1
   14205    13719    13742 1
   14206    13719    13743 1
   14207    13720    13721 1
   14208    13720    13744 1
   14209    13720    13745 1
   14210    13721    13722 1
   14211    13721    13746 1
   14212    13721    13747 1
   14213    13722    13723 1
   14214    13722    13748 1
   14215    13722    13749 1
   14216    13723    13724 1
   14217    13723    13750 1
   14218    13723    13751 1
   14219    13724    13725 1
   14220    13724    13752 1
   14221    13724    13753 1
   14222    13725    13726 1
   14223    13725    13754 1
   14224    13725    13755 1
   14225    13726    13756 1
   14226    13726    13757 1
   14227    13726    13758 1
   14228    13727    13728 1
   14229    13727    13759 1
   14230    13727    13760 1
   14231    13728    13729 1
   14232    13728    13761 1
   14233    13728    13762 1
   14234    13729    13730 1
   14235    13729    13763 1
   14236    13729    13764 1
   14237    13730    13731 1
   14238    13730    13765 1
   14239    13730    13766 1
   14240    13731    13732 1
   14241    13731    13767 1
   14242    13731    13768 1
   14243    13732    13733 1
   14244    13732    13769 1
   14245    13732    13770 1
   14246    13733    13734 1
   14247    13733    13771 1
   14248    13733    13772 1
   14249    13734    13773 1
   14250    13734    13774 1
   14251    13734    13775 1
   14252    13776    13777 1
   14253    13776    13783 1
   14254    13776    13799 1
   14255    13776    13860 1
   14256    13777    13778 1
   14257    13777    13781 1
   14258    13778    13779 1
   14259    13778    13782 1
   14260    13779    13780 1
   14261    13780    13781 1
   14262    13781    13787 1
   14263    13782    13783 1
   14264    13782    13786 1
   14265    13783    13784 1
   14266    13784    13785 1
   14267    13784    13788 1
   14268    13785    13786 1
   14269    13785    13791 1
   14270    13789    13790 1
   14271    13789    13797 1
   14272    13790    13791 1
   14273    13790    13798 1
   14274    13791    13792 1
   14275    13792    13793 1
   14276    13792    13796 1
   14277    13793    13794 1
   14278    13794    13795 1
   14279    13795    13796 1
   14280    13796    13797 1
   14281    13797    13925 1
   14282    13799    13800 1
   14283    13799    13819 1
   14284    13799    13820 1
   14285    13800    13801 1
   14286    13800    13811 1
   14287    13800    13821 1
   14288    13801    13802 1
   14289    13801    13822 1
   14290    13801    13823 1
   14291    13802    13803 1
   14292    13802    13824 1
   14293    13802    13825 1
   14294    13803    13804 1
   14295    13803    13826 1
   14296    13803    13827 1
   14297    13804    13805 1
   14298    13804    13828 1
   14299    13804    13829 1
   14300    13805    13806 1
   14301    13805    13830 1
   14302    13805    13831 1
   14303    13806    13807 1
   14304    13806    13832 1
   14305    13806    13833 1
   14306    13807    13808 1
   14307    13807    13834 1
   14308    13807    13835 1
   14309    13808    13809 1
   14310    13808    13836 1
   14311    13808    13837 1
   14312    13809    13810 1
   14313    13809    13838 1
   14314    13809    13839 1
   14315    13810    13840 1
   14316    13810    13841 1
   14317    13810    13842 1
   14318    13811    13812 1
   14319    13811    13843 1
   14320    13811    13844 1
   14321    13812    13813 1
   14322    13812    13845 1
   14323    13812    13846 1
   14324    13813    13814 1
   14325    13813    13847 1
   14326    13813    13848 1
   14327    13814    13815 1
   14328    13814    13849 1
   14329    13814    13850 1
   14330    13815    13816 1
   14331    13815    13851 1
   14332    13815    13852 1
   14333    13816    13817 1
   14334    13816    13853 1
   14335    13816    13854 1
   14336    13817    13818 1
   14337    13817    13855 1
   14338    13817    13856 1
   14339    13818    13857 1
   14340    13818    13858 1
   14341    13818    13859 1
   14342    13860    13861 1
   14343    13860    13880 1
   14344    13860    13881 1
   14345    13861    13862 1
   14346    13861    13872 1
   14347    13861    13882 1
   14348    13862    13863 1
   14349    13862    13883 1
   14350    13862    13884 1
   14351    13863    13864 1
   14352    13863    13885 1
   14353    13863    13886 1
   14354    13864    13865 1
   14355    13864    13887 1
   14356    13864    13888 1
   14357    13865    13866 1
   14358    13865    13889 1
   14359    13865    13890 1
   14360    13866    13867 1
   14361    13866    13891 1
   14362    13866    13892 1
   14363    13867    13868 1
   14364    13867    13893 1
   14365    13867    13894 1
   14366    13868    13869 1
   14367    13868    13895 1
   14368    13868    13896 1
   14369    13869    13870 1
   14370    13869    13897 1
   14371    13869    13898 1
   14372    13870    13871 1
   14373    13870    13899 1
   14374    13870    13900 1
   14375    13871    13901 1
   14376    13871    13902 1
   14377    13871    13903 1
   14378    13872    13873 1
   14379    13872    13904 1
   14380    13872    13905 1
   14381    13873    13874 1
   14382    13873    13906 1
   14383    13873    13907 1
   14384    13874    13875 1
   14385    13874    13908 1
   14386    13874    13909 1
   14387    13875    13876 1
   14388    13875    13910 1
   14389    13875    13911 1
   14390    13876    13877 1
   14391    13876    13912 1
   14392    13876    13913 1
   14393    13877    13878 1
   14394    13877    13914 1
   14395    13877    13915 1
   14396    13878    13879 1
   14397    13878    13916 1
   14398    13878    13917 1
   14399    13879    13918 1
   14400    13879    13919 1
   14401    13879    13920 1
   14402    13921    13922 1
   14403    13921    13928 1
   14404    13921    13944 1
   14405    13921    14005 1
   14406    13922    13923 1
   14407    13922    13926 1
   14408    13923    13924 1
   14409    13923    13927 1
   14410    13924    13925 1
   14411    13925    13926 1
   14412    13926    13932 1
   14413    13927    13928 1
   14414    13927    13931 1
   14415    13928    13929 1
   14416    13929    13930 1
   14417    13929    13933 1
   14418    13930    13931 1
   14419    13930    13936 1
   14420    13934    13935 1
   14421    13934    13942 1
   14422    13935    13936 1
   14423    13935    13943 1
   14424    13936    13937 1
   14425    13937    13938 1
   14426    13937    13941 1
   14427    13938    13939 1
   14428    13939    13940 1
   14429    13940    13941 1
   14430    13941    13942 1
   14431    13942    14070 1
   14432    13944    13945 1
   14433    13944    13964 1
   14434    13944    13965 1
   14435    13945    13946 1
   14436    13945    13956 1
   14437    13945    13966 1
   14438    13946    13947 1
   14439    13946    13967 1
   14440    13946    13968 1
   14441    13947    13948 1
   14442    13947    13969 1
   14443    13947    13970 1
   14444    13948    13949 1
   14445    13948    13971 1
   14446    13948    13972 1
   14447    13949    13950 1
   14448    13949    13973 1
   14449    13949    13974 1
   14450    13950    13951 1
   14451    13950    13975 1
   14452    13950    13976 1
   14453    13951    13952 1
   14454    13951    13977 1
   14455    13951    13978 1
   14456    13952    13953 1
   14457    13952    13979 1
   14458    13952    13980 1
   14459    13953    13954 1
   14460    13953    13981 1
   14461    13953    13982 1
   14462    13954    13955 1
   14463    13954    13983 1
   14464    13954    13984 1
   14465    13955    13985 1
   14466    13955    13986 1
   14467    13955    13987 1
   14468    13956    13957 1
   14469    13956    13988 1
   14470    13956    13989 1
   14471    13957    13958 1
   14472    13957    13990 1
   14473    13957    13991 1
   14474    13958    13959 1
   14475    13958    13992 1
   14476    13958    13993 1
   14477    13959    13960 1
   14478    13959    13994 1
   14479    13959    13995 1
   14480    13960    13961 1
   14481    13960    13996 1
   14482    13960    13997 1
   14483    13961    13962 1
   14484    13961    13998 1
   14485    13961    13999 1
   14486    13962    13963 1
   14487    13962    14000 1
   14488    13962    14001 1
   14489    13963    14002 1
   14490    13963    14003 1
   14491    13963    14004 1
   14492    14005    14006 1
   14493    14005    14025 1
   14494    14005    14026 1
   14495    14006    14007 1
   14496    14006    14017 1
   14497    14006    14027 1
   14498    14007    14008 1
   14499    14007    14028 1
   14500    14007    14029 1
   14501    14008    14009 1
   14502    14008    14030 1
   14503    14008    14031 1
   14504    14009    14010 1
   14505    14009    14032 1
   14506    14009    14033 1
   14507    14010    14011 1
   14508    14010    14034 1
   14509    14010    14035 1
   14510    14011    14012 1
   14511    14011    14036 1
   14512    14011    14037 1
   14513    14012    14013 1
   14514    14012    14038 1
   14515    14012    14039 1
   14516    14013    14014 1
   14517    14013    14040 1
   14518    14013    14041 1
   14519    14014    14015 1
   14520    14014    14042 1
   14521    14014    14043 1
   14522    14015    14016 1
   14523    14015    14044 1
   14524    14015    14045 1
   14525    14016    14046 1
   14526    14016    14047 1
   14527    14016    14048 1
   14528    14017    14018 1
   14529    14017    14049 1
   14530    14017    14050 1
   14531    14018    14019 1
   14532    14018    14051 1
   14533    14018    14052 1
   14534    14019    14020 1
   14535    14019    14053 1
   14536    14019    14054 1
   14537    14020    14021 1
   14538    14020    14055 1
   14539    14020    14056 1
   14540    14021    14022 1
   14541    14021    14057 1
   14542    14021    14058 1
   14543    14022    14023 1
   14544    14022    14059 1
   14545    14022    14060 1
   14546    14023    14024 1
   14547    14023    14061 1
   14548    14023    14062 1
   14549    14024    14063 1
   14550    14024    14064 1
   14551    14024    14065 1
   14552    14066    14067 1
   14553    14066    14073 1
   14554    14066    14089 1
   14555    14066    14150 1
   14556    14067    14068 1
   14557    14067    14071 1
   14558    14068    14069 1
   14559    14068    14072 1
   14560    14069    14070 1
   14561    14070    14071 1
   14562    14071    14077 1
   14563    14072    14073 1
   14564    14072    14076 1
   14565    14073    14074 1
   14566    14074    14075 1
   14567    14074    14078 1
   14568    14075    14076 1
   14569    14075    14081 1
   14570    14079    14080 1
   14571    14079    14087 1
   14572    14080    14081 1
   14573    14080    14088 1
   14574    14081    14082 1
   14575    14082    14083 1
   14576    14082    14086 1
   14577    14083    14084 1
   14578    14084    14085 1
   14579    14085    14086 1
   14580    14086    14087 1
   14581    14087    14215 1
   14582    14089    14090 1
   14583    14089    14109 1
   14584    14089    14110 1
   14585    14090    14091 1
   14586    14090    14101 1
   14587    14090    14111 1
   14588    14091    14092 1
   14589    14091    14112 1
   14590    14091    14113 1
   14591    14092    14093 1
   14592    14092    14114 1
   14593    14092    14115 1
   14594    14093    14094 1
   14595    14093    14116 1
   14596    14093    14117 1
   14597    14094    14095 1
   14598    14094    14118 1
   14599    14094    14119 1
   14600    14095    14096 1
   14601    14095    14120 1
   14602    14095    14121 1
   14603    14096    14097 1
   14604    14096    14122 1
   14605    14096    14123 1
   14606    14097    14098 1
   14607    14097    14124 1
   14608    14097    14125 1
   14609    14098    14099 1
   14610    14098    14126 1
   14611    14098    14127 1
   14612    14099    14100 1
   14613    14099    14128 1
   14614    14099    14129 1
   14615    14100    14130 1
   14616    14100    14131 1
   14617    14100    14132 1
   14618    14101    14102 1
   14619    14101    14133 1
   14620    14101    14134 1
   14621    14102    14103 1
   14622    14102    14135 1
   14623    14102    14136 1
   14624    14103    14104 1
   14625    14103    14137 1
   14626    14103    14138 1
   14627    14104    14105 1
   14628    14104    14139 1
   14629    14104    14140 1
   14630    14105    14106 1
   14631    14105    14141 1
   14632    14105    14142 1
   14633    14106    14107 1
   14634    14106    14143 1
   14635    14106    14144 1
   14636    14107    14108 1
   14637    14107    14145 1
   14638    14107    14146 1
   14639    14108    14147 1
   14640    14108    14148 1
   14641    14108    14149 1
   14642    14150    14151 1
   14643    14150    14170 1
   14644    14150    14171 1
   14645    14151    14152 1
   14646    14151    14162 1
   14647    14151    14172 1
   14648    14152    14153 1
   14649    14152    14173 1
   14650    14152    14174 1
   14651    14153    14154 1
   14652    14153    14175 1
   14653    14153    14176 1
   14654    14154    14155 1
   14655    14154    14177 1
   14656    14154    14178 1
   14657    14155    14156 1
   14658    14155    14179 1
   14659    14155    14180 1
   14660    14156    14157 1
   14661    14156    14181 1
   14662    14156    14182 1
   14663    14157    14158 1
   14664    14157    14183 1
   14665    14157    14184 1
   14666    14158    14159 1
   14667    14158    14185 1
   14668    14158    14186 1
   14669    14159    14160 1
   14670    14159    14187 1
   14671    14159    14188 1
   14672    14160    14161 1
   14673    14160    14189 1
   14674    14160    14190 1
   14675    14161    14191 1
   14676    14161    14192 1
   14677    14161    14193 1
   14678    14162    14163 1
   14679    14162    14194 1
   14680    14162    14195 1
   14681    14163    14164 1
   14682    14163    14196 1
   14683    14163    14197 1
   14684    14164    14165 1
   14685    14164    14198 1
   14686    14164    14199 1
   14687    14165    14166 1
   14688    14165    14200 1
   14689    14165    14201 1
   14690    14166    14167 1
   14691    14166    14202 1
   14692    14166    14203 1
   14693    14167    14168 1
   14694    14167    14204 1
   14695    14167    14205 1
   14696    14168    14169 1
   14697    14168    14206 1
   14698    14168    14207 1
   14699    14169    14208 1
   14700    14169    14209 1
   14701    14169    14210 1
   14702    14211    14212 1
   14703    14211    14218 1
   14704    14211    14234 1
   14705    14211    14295 1
   14706    14212    14213 1
   14707    14212    14216 1
   14708    14213    14214 1
   14709    14213    14217 1
   14710    14214    14215 1
   14711    14215    14216 1
   14712    14216    14222 1
   14713    14217    14218 1
   14714    14217    14221 1
   14715    14218    14219 1
   14716    14219    14220 1
   14717    14219    14223 1
   14718    14220    14221 1
   14719    14220    14226 1
   14720    14224    14225 1
   14721    14224    14232 1
   14722    14225    14226 1
   14723    14225    14233 1
   14724    14226    14227 1
   14725    14227    14228 1
   14726    14227    14231 1
   14727    14228    14229 1
   14728    14229    14230 1
   14729    14230    14231 1
   14730    14231    14232 1
   14731    14232    14360 1
   14732    14234    14235 1
   14733    14234    14254 1
   14734    14234    14255 1
   14735    14235    14236 1
   14736    14235    14246 1
   14737    14235    14256 1
   14738    14236    14237 1
   14739    14236    14257 1
   14740    14236    14258 1
   14741    14237    14238 1
   14742    14237    14259 1
   14743    14237    14260 1
   14744    14238    14239 1
   14745    14238    14261 1
   14746    14238    14262 1
   14747    14239    14240 1
   14748    14239    14263 1
   14749    14239    14264 1
   14750    14240    14241 1
   14751    14240    14265 1
   14752    14240    14266 1
   14753    14241    14242 1
   14754    14241    14267 1
   14755    14241    14268 1
   14756    14242    14243 1
   14757    14242    14269 1
   14758    14242    14270 1
   14759    14243    14244 1
   14760    14243    14271 1
   14761    14243    14272 1
   14762    14244    14245 1
   14763    14244    14273 1
   14764    14244    14274 1
   14765    14245    14275 1
   14766    14245    14276 1
   14767    14245    14277 1
   14768    14246    14247 1
   14769    14246    14278 1
   14770    14246    14279 1
   14771    14247    14248 1
   14772    14247    14280 1
   14773    14247    14281 1
   14774    14248    14249 1
   14775    14248    14282 1
   14776    14248    14283 1
   14777    14249    14250 1
   14778    14249    14284 1
   14779    14249    14285 1
   14780    14250    14251 1
   14781    14250    14286 1
   14782    14250    14287 1
   14783    14251    14252 1
   14784    14251    14288 1
   14785    14251    14289 1
   14786    14252    14253 1
   14787    14252    14290 1
   14788    14252    14291 1
   14789    14253    14292 1
   14790    14253    14293 1
   14791    14253    14294 1
   14792    14295    14296 1
   14793    14295    14315 1
   14794    14295    14316 1
   14795    14296    14297 1
   14796    14296    14307 1
   14797    14296    14317 1
   14798    14297    14298 1
   14799    14297    14318 1
   14800    14297    14319 1
   14801    14298    14299 1
   14802    14298    14320 1
   14803    14298    14321 1
   14804    14299    14300 1
   14805    14299    14322 1
   14806    14299    14323 1
   14807    14300    14301 1
   14808    14300    14324 1
   14809    14300    14325 1
   14810    14301    14302 1
   14811    14301    14326 1
   14812    14301    14327 1
   14813    14302    14303 1
   14814    14302    14328 1
   14815    14302    14329 1
   14816    14303    14304 1
   14817    14303    14330 1
   14818    14303    14331 1
   14819    14304    14305 1
   14820    14304    14332 1
   14821    14304    14333 1
   14822    14305    14306 1
   14823    14305    14334 1
   14824    14305    14335 1
   14825    14306    14336 1
   14826    14306    14337 1
   14827    14306    14338 1
   14828    14307    14308 1
   14829    14307    14339 1
   14830    14307    14340 1
   14831    14308    14309 1
   14832    14308    14341 1
   14833    14308    14342 1
   14834    14309    14310 1
   14835    14309    14343 1
   14836    14309    14344 1
   14837    14310    14311 1
   14838    14310    14345 1
   14839    14310    14346 1
   14840    14311    14312 1
   14841    14311    14347 1
   14842    14311    14348 1
   14843    14312    14313 1
   14844    14312    14349 1
   14845    14312    14350 1
   14846    14313    14314 1
   14847    14313    14351 1
   14848    14313    14352 1
   14849    14314    14353 1
   14850    14314    14354 1
   14851    14314    14355 1
   14852    14356    14357 1
   14853    14356    14363 1
   14854    14356    14379 1
   14855    14356    14440 1
   14856    14357    14358 1
   14857    14357    14361 1
   14858    14358    14359 1
   14859    14358    14362 1
   14860    14359    14360 1
   14861    14360    14361 1
   14862    14361    14367 1
   14863    14362    14363 1
   14864    14362    14366 1
   14865    14363    14364 1
   14866    14364    14365 1
   14867    14364    14368 1
   14868    14365    14366 1
   14869    14365    14371 1
   14870    14369    14370 1
   14871    14369    14377 1
   14872    14370    14371 1
   14873    14370    14378 1
   14874    14371    14372 1
   14875    14372    14373 1
   14876    14372    14376 1
   14877    14373    14374 1
   14878    14374    14375 1
   14879    14375    14376 1
   14880    14376    14377 1
   14881    14377    14505 1
   14882    14379    14380 1
   14883    14379    14399 1
   14884    14379    14400 1
   14885    14380    14381 1
   14886    14380    14391 1
   14887    14380    14401 1
   14888    14381    14382 1
   14889    14381    14402 1
   14890    14381    14403 1
   14891    14382    14383 1
   14892    14382    14404 1
   14893    14382    14405 1
   14894    14383    14384 1
   14895    14383    14406 1
   14896    14383    14407 1
   14897    14384    14385 1
   14898    14384    14408 1
   14899    14384    14409 1
   14900    14385    14386 1
   14901    14385    14410 1
   14902    14385    14411 1
   14903    14386    14387 1
   14904    14386    14412 1
   14905    14386    14413 1
   14906    14387    14388 1
   14907    14387    14414 1
   14908    14387    14415 1
   14909    14388    14389 1
   14910    14388    14416 1
   14911    14388    14417 1
   14912    14389    14390 1
   14913    14389    14418 1
   14914    14389    14419 1
   14915    14390    14420 1
   14916    14390    14421 1
   14917    14390    14422 1
   14918    14391    14392 1
   14919    14391    14423 1
   14920    14391    14424 1
   14921    14392    14393 1
   14922    14392    14425 1
   14923    14392    14426 1
   14924    14393    14394 1
   14925    14393    14427 1
   14926    14393    14428 1
   14927    14394    14395 1
   14928    14394    14429 1
   14929    14394    14430 1
   14930    14395    14396 1
   14931    14395    14431 1
   14932    14395    14432 1
   14933    14396    14397 1
   14934    14396    14433 1
   14935    14396    14434 1
   14936    14397    14398 1
   14937    14397    14435 1
   14938    14397    14436 1
   14939    14398    14437 1
   14940    14398    14438 1
   14941    14398    14439 1
   14942    14440    14441 1
   14943    14440    14460 1
   14944    14440    14461 1
   14945    14441    14442 1
   14946    14441    14452 1
   14947    14441    14462 1
   14948    14442    14443 1
   14949    14442    14463 1
   14950    14442    14464 1
   14951    14443    14444 1
   14952    14443    14465 1
   14953    14443    14466 1
   14954    14444    14445 1
   14955    14444    14467 1
   14956    14444    14468 1
   14957    14445    14446 1
   14958    14445    14469 1
   14959    14445    14470 1
   14960    14446    14447 1
   14961    14446    14471 1
   14962    14446    14472 1
   14963    14447    14448 1
   14964    14447    14473 1
   14965    14447    14474 1
   14966    14448    14449 1
   14967    14448    14475 1
   14968    14448    14476 1
   14969    14449    14450 1
   14970    14449    14477 1
   14971    14449    14478 1
   14972    14450    14451 1
   14973    14450    14479 1
   14974    14450    14480 1
   14975    14451    14481 1
   14976    14451    14482 1
   14977    14451    14483 1
   14978    14452    14453 1
   14979    14452    14484 1
   14980    14452    14485 1
   14981    14453    14454 1
   14982    14453    14486 1
   14983    14453    14487 1
   14984    14454    14455 1
   14985    14454    14488 1
   14986    14454    14489 1
   14987    14455    14456 1
   14988    14455    14490 1
   14989    14455    14491 1
   14990    14456    14457 1
   14991    14456    14492 1
   14992    14456    14493 1
   14993    14457    14458 1
   14994    14457    14494 1
   14995    14457    14495 1
   14996    14458    14459 1
   14997    14458    14496 1
   14998    14458    14497 1
   14999    14459    14498 1
   15000    14459    14499 1
   15001    14459    14500 1
   15002    14501    14502 1
   15003    14501    14508 1
   15004    14501    14524 1
   15005    14501    14585 1
   15006    14502    14503 1
   15007    14502    14506 1
   15008    14503    14504 1
   15009    14503    14507 1
   15010    14504    14505 1
   15011    14505    14506 1
   15012    14506    14512 1
   15013    14507    14508 1
   15014    14507    14511 1
   15015    14508    14509 1
   15016    14509    14510 1
   15017    14509    14513 1
   15018    14510    14511 1
   15019    14510    14516 1
   15020    14514    14515 1
   15021    14514    14522 1
   15022    14515    14516 1
   15023    14515    14523 1
   15024    14516    14517 1
   15025    14517    14518 1
   15026    14517    14521 1
   15027    14518    14519 1
   15028    14519    14520 1
   15029    14520    14521 1
   15030    14521    14522 1
   15031    14522    14650 1
   15032    14524    14525 1
   15033    14524    14544 1
   15034    14524    14545 1
   15035    14525    14526 1
   15036    14525    14536 1
   15037    14525    14546 1
   15038    14526    14527 1
   15039    14526    14547 1
   15040    14526    14548 1
   15041    14527    14528 1
   15042    14527    14549 1
   15043    14527    14550 1
   15044    14528    14529 1
   15045    14528    14551 1
   15046    14528    14552 1
   15047    14529    14530 1
   15048    14529    14553 1
   15049    14529    14554 1
   15050    14530    14531 1
   15051    14530    14555 1
   15052    14530    14556 1
   15053    14531    14532 1
   15054    14531    14557 1
   15055    14531    14558 1
   15056    14532    14533 1
   15057    14532    14559 1
   15058    14532    14560 1
   15059    14533    14534 1
   15060    14533    14561 1
   15061    14533    14562 1
   15062    14534    14535 1
   15063    14534    14563 1
   15064    14534    14564 1
   15065    14535    14565 1
   15066    14535    14566 1
   15067    14535    14567 1
   15068    14536    14537 1
   15069    14536    14568 1
   15070    14536    14569 1
   15071    14537    14538 1
   15072    14537    14570 1
   15073    14537    14571 1
   15074    14538    14539 1
   15075    14538    14572 1
   15076    14538    14573 1
   15077    14539    14540 1
   15078    14539    14574 1
   15079    14539    14575 1
   15080    14540    14541 1
   15081    14540    14576 1
   15082    14540    14577 1
   15083    14541    14542 1
   15084    14541    14578 1
   15085    14541    14579 1
   15086    14542    14543 1
   15087    14542    14580 1
   15088    14542    14581 1
   15089    14543    14582 1
   15090    14543    14583 1
   15091    14543    14584 1
   15092    14585    14586 1
   15093    14585    14605 1
   15094    14585    14606 1
   15095    14586    14587 1
   15096    14586    14597 1
   15097    14586    14607 1
   15098    14587    14588 1
   15099    14587    14608 1
   15100    14587    14609 1
   15101    14588    14589 1
   15102    14588    14610 1
   15103    14588    14611 1
   15104    14589    14590 1
   15105    14589    14612 1
   15106    14589    14613 1
   15107    14590    14591 1
   15108    14590    14614 1
   15109    14590    14615 1
   15110    14591    14592 1
   15111    14591    14616 1
   15112    14591    14617 1
   15113    14592    14593 1
   15114    14592    14618 1
   15115    14592    14619 1
   15116    14593    14594 1
   15117    14593    14620 1
   15118    14593    14621 1
   15119    14594    14595 1
   15120    14594    14622 1
   15121    14594    14623 1
   15122    14595    14596 1
   15123    14595    14624 1
   15124    14595    14625 1
   15125    14596    14626 1
   15126    14596    14627 1
   15127    14596    14628 1
   15128    14597    14598 1
   15129    14597    14629 1
   15130    14597    14630 1
   15131    14598    14599 1
   15132    14598    14631 1
   15133    14598    14632 1
   15134    14599    14600 1
   15135    14599    14633 1
   15136    14599    14634 1
   15137    14600    14601 1
   15138    14600    14635 1
   15139    14600    14636 1
   15140    14601    14602 1
   15141    14601    14637 1
   15142    14601    14638 1
   15143    14602    14603 1
   15144    14602    14639 1
   15145    14602    14640 1
   15146    14603    14604 1
   15147    14603    14641 1
   15148    14603    14642 1
   15149    14604    14643 1
   15150    14604    14644 1
   15151    14604    14645 1
   15152    14646    14647 1
   15153    14646    14653 1
   15154    14646    14669 1
   15155    14646    14730 1
   15156    14647    14648 1
   15157    14647    14651 1
   15158    14648    14649 1
   15159    14648    14652 1
   15160    14649    14650 1
   15161    14650    14651 1
   15162    14651    14657 1
   15163    14652    14653 1
   15164    14652    14656 1
   15165    14653    14654 1
   15166    14654    14655 1
   15167    14654    14658 1
   15168    14655    14656 1
   15169    14655    14661 1
   15170    14659    14660 1
   15171    14659    14667 1
   15172    14660    14661 1
   15173    14660    14668 1
   15174    14661    14662 1
   15175    14662    14663 1
   15176    14662    14666 1
   15177    14663    14664 1
   15178    14664    14665 1
   15179    14665    14666 1
   15180    14666    14667 1
   15181    14667    14795 1
   15182    14669    14670 1
   15183    14669    14689 1
   15184    14669    14690 1
   15185    14670    14671 1
   15186    14670    14681 1
   15187    14670    14691 1
   15188    14671    14672 1
   15189    14671    14692 1
   15190    14671    14693 1
   15191    14672    14673 1
   15192    14672    14694 1
   15193    14672    14695 1
   15194    14673    14674 1
   15195    14673    14696 1
   15196    14673    14697 1
   15197    14674    14675 1
   15198    14674    14698 1
   15199    14674    14699 1
   15200    14675    14676 1
   15201    14675    14700 1
   15202    14675    14701 1
   15203    14676    14677 1
   15204    14676    14702 1
   15205    14676    14703 1
   15206    14677    14678 1
   15207    14677    14704 1
   15208    14677    14705 1
   15209    14678    14679 1
   15210    14678    14706 1
   15211    14678    14707 1
   15212    14679    14680 1
   15213    14679    14708 1
   15214    14679    14709 1
   15215    14680    14710 1
   15216    14680    14711 1
   15217    14680    14712 1
   15218    14681    14682 1
   15219    14681    14713 1
   15220    14681    14714 1
   15221    14682    14683 1
   15222    14682    14715 1
   15223    14682    14716 1
   15224    14683    14684 1
   15225    14683    14717 1
   15226    14683    14718 1
   15227    14684    14685 1
   15228    14684    14719 1
   15229    14684    14720 1
   15230    14685    14686 1
   15231    14685    14721 1
   15232    14685    14722 1
   15233    14686    14687 1
   15234    14686    14723 1
   15235    14686    14724 1
   15236    14687    14688 1
   15237    14687    14725 1
   15238    14687    14726 1
   15239    14688    14727 1
   15240    14688    14728 1
   15241    14688    14729 1
   15242    14730    14731 1
   15243    14730    14750 1
   15244    14730    14751 1
   15245    14731    14732 1
   15246    14731    14742 1
   15247    14731    14752 1
   15248    14732    14733 1
   15249    14732    14753 1
   15250    14732    14754 1
   15251    14733    14734 1
   15252    14733    14755 1
   15253    14733    14756 1
   15254    14734    14735 1
   15255    14734    14757 1
   15256    14734    14758 1
   15257    14735    14736 1
   15258    14735    14759 1
   15259    14735    14760 1
   15260    14736    14737 1
   15261    14736    14761 1
   15262    14736    14762 1
   15263    14737    14738 1
   15264    14737    14763 1
   15265    14737    14764 1
   15266    14738    14739 1
   15267    14738    14765 1
   15268    14738    14766 1
   15269    14739    14740 1
   15270    14739    14767 1
   15271    14739    14768 1
   15272    14740    14741 1
   15273    14740    14769 1
   15274    14740    14770 1
   15275    14741    14771 1
   15276    14741    14772 1
   15277    14741    14773 1
   15278    14742    14743 1
   15279    14742    14774 1
   15280    14742    14775 1
   15281    14743    14744 1
   15282    14743    14776 1
   15283    14743    14777 1
   15284    14744    14745 1
   15285    14744    14778 1
   15286    14744    14779 1
   15287    14745    14746 1
   15288    14745    14780 1
   15289    14745    14781 1
   15290    14746    14747 1
   15291    14746    14782 1
   15292    14746    14783 1
   15293    14747    14748 1
   15294    14747    14784 1
   15295    14747    14785 1
   15296    14748    14749 1
   15297    14748    14786 1
   15298    14748    14787 1
   15299    14749    14788 1
   15300    14749    14789 1
   15301    14749    14790 1
   15302    14791    14792 1
   15303    14791    14798 1
   15304    14791    14814 1
   15305    14791    14875 1
   15306    14792    14793 1
   15307    14792    14796 1
   15308    14793    14794 1
   15309    14793    14797 1
   15310    14794    14795 1
   15311    14795    14796 1
   15312    14796    14802 1
   15313    14797    14798 1
   15314    14797    14801 1
   15315    14798    14799 1
   15316    14799    14800 1
   15317    14799    14803 1
   15318    14800    14801 1
   15319    14800    14806 1
   15320    14804    14805 1
   15321    14804    14812 1
   15322    14805    14806 1
   15323    14805    14813 1
   15324    14806    14807 1
   15325    14807    14808 1
   15326    14807    14811 1
   15327    14808    14809 1
   15328    14809    14810 1
   15329    14810    14811 1
   15330    14811    14812 1
   15331    14812    14940 1
   15332    14814    14815 1
   15333    14814    14834 1
   15334    14814    14835 1
   15335    14815    14816 1
   15336    14815    14826 1
   15337    14815    14836 1
   15338    14816    14817 1
   15339    14816    14837 1
   15340    14816    14838 1
   15341    14817    14818 1
   15342    14817    14839 1
   15343    14817    14840 1
   15344    14818    14819 1
   15345    14818    14841 1
   15346    14818    14842 1
   15347    14819    14820 1
   15348    14819    14843 1
   15349    14819    14844 1
   15350    14820    14821 1
   15351    14820    14845 1
   15352    14820    14846 1
   15353    14821    14822 1
   15354    14821    14847 1
   15355    14821    14848 1
   15356    14822    14823 1
   15357    14822    14849 1
   15358    14822    14850 1
   15359    14823    14824 1
   15360    14823    14851 1
   15361    14823    14852 1
   15362    14824    14825 1
   15363    14824    14853 1
   15364    14824    14854 1
   15365    14825    14855 1
   15366    14825    14856 1
   15367    14825    14857 1
   15368    14826    14827 1
   15369    14826    14858 1
   15370    14826    14859 1
   15371    14827    14828 1
   15372    14827    14860 1
   15373    14827    14861 1
   15374    14828    14829 1
   15375    14828    14862 1
   15376    14828    14863 1
   15377    14829    14830 1
   15378    14829    14864 1
   15379    14829    14865 1
   15380    14830    14831 1
   15381    14830    14866 1
   15382    14830    14867 1
   15383    14831    14832 1
   15384    14831    14868 1
   15385    14831    14869 1
   15386    14832    14833 1
   15387    14832    14870 1
   15388    14832    14871 1
   15389    14833    14872 1
   15390    14833    14873 1
   15391    14833    14874 1
   15392    14875    14876 1
   15393    14875    14895 1
   15394    14875    14896 1
   15395    14876    14877 1
   15396    14876    14887 1
   15397    14876    14897 1
   15398    14877    14878 1
   15399    14877    14898 1
   15400    14877    14899 1
   15401    14878    14879 1
   15402    14878    14900 1
   15403    14878    14901 1
   15404    14879    14880 1
   15405    14879    14902 1
   15406    14879    14903 1
   15407    14880    14881 1
   15408    14880    14904 1
   15409    14880    14905 1
   15410    14881    14882 1
   15411    14881    14906 1
   15412    14881    14907 1
   15413    14882    14883 1
   15414    14882    14908 1
   15415    14882    14909 1
   15416    14883    14884 1
   15417    14883    14910 1
   15418    14883    14911 1
   15419    14884    14885 1
   15420    14884    14912 1
   15421    14884    14913 1
   15422    14885    14886 1
   15423    14885    14914 1
   15424    14885    14915 1
   15425    14886    14916 1
   15426    14886    14917 1
   15427    14886    14918 1
   15428    14887    14888 1
   15429    14887    14919 1
   15430    14887    14920 1
   15431    14888    14889 1
   15432    14888    14921 1
   15433    14888    14922 1
   15434    14889    14890 1
   15435    14889    14923 1
   15436    14889    14924 1
   15437    14890    14891 1
   15438    14890    14925 1
   15439    14890    14926 1
   15440    14891    14892 1
   15441    14891    14927 1
   15442    14891    14928 1
   15443    14892    14893 1
   15444    14892    14929 1
   15445    14892    14930 1
   15446    14893    14894 1
   15447    14893    14931 1
   15448    14893    14932 1
   15449    14894    14933 1
   15450    14894    14934 1
   15451    14894    14935 1
   15452    14936    14937 1
   15453    14936    14943 1
   15454    14936    14959 1
   15455    14936    15020 1
   15456    14937    14938 1
   15457    14937    14941 1
   15458    14938    14939 1
   15459    14938    14942 1
   15460    14939    14940 1
   15461    14940    14941 1
   15462    14941    14947 1
   15463    14942    14943 1
   15464    14942    14946 1
   15465    14943    14944 1
   15466    14944    14945 1
   15467    14944    14948 1
   15468    14945    14946 1
   15469    14945    14951 1
   15470    14949    14950 1
   15471    14949    14957 1
   15472    14950    14951 1
   15473    14950    14958 1
   15474    14951    14952 1
   15475    14952    14953 1
   15476    14952    14956 1
   15477    14953    14954 1
   15478    14954    14955 1
   15479    14955    14956 1
   15480    14956    14957 1
   15481    14957    15085 1
   15482    14959    14960 1
   15483    14959    14979 1
   15484    14959    14980 1
   15485    14960    14961 1
   15486    14960    14971 1
   15487    14960    14981 1
   15488    14961    14962 1
   15489    14961    14982 1
   15490    14961    14983 1
   15491    14962    14963 1
   15492    14962    14984 1
   15493    14962    14985 1
   15494    14963    14964 1
   15495    14963    14986 1
   15496    14963    14987 1
   15497    14964    14965 1
   15498    14964    14988 1
   15499    14964    14989 1
   15500    14965    14966 1
   15501    14965    14990 1
   15502    14965    14991 1
   15503    14966    14967 1
   15504    14966    14992 1
   15505    14966    14993 1
   15506    14967    14968 1
   15507    14967    14994 1
   15508    14967    14995 1
   15509    14968    14969 1
   15510    14968    14996 1
   15511    14968    14997 1
   15512    14969    14970 1
   15513    14969    14998 1
   15514    14969    14999 1
   15515    14970    15000 1
   15516    14970    15001 1
   15517    14970    15002 1
   15518    14971    14972 1
   15519    14971    15003 1
   15520    14971    15004 1
   15521    14972    14973 1
   15522    14972    15005 1
   15523    14972    15006 1
   15524    14973    14974 1
   15525    14973    15007 1
   15526    14973    15008 1
   15527    14974    14975 1
   15528    14974    15009 1
   15529    14974    15010 1
   15530    14975    14976 1
   15531    14975    15011 1
   15532    14975    15012 1
   15533    14976    14977 1
   15534    14976    15013 1
   15535    14976    15014 1
   15536    14977    14978 1
   15537    14977    15015 1
   15538    14977    15016 1
   15539    14978    15017 1
   15540    14978    15018 1
   15541    14978    15019 1
   15542    15020    15021 1
   15543    15020    15040 1
   15544    15020    15041 1
   15545    15021    15022 1
   15546    15021    15032 1
   15547    15021    15042 1
   15548    15022    15023 1
   15549    15022    15043 1
   15550    15022    15044 1
   15551    15023    15024 1
   15552    15023    15045 1
   15553    15023    15046 1
   15554    15024    15025 1
   15555    15024    15047 1
   15556    15024    15048 1
   15557    15025    15026 1
   15558    15025    15049 1
   15559    15025    15050 1
   15560    15026    15027 1
   15561    15026    15051 1
   15562    15026    15052 1
   15563    15027    15028 1
   15564    15027    15053 1
   15565    15027    15054 1
   15566    15028    15029 1
   15567    15028    15055 1
   15568    15028    15056 1
   15569    15029    15030 1
   15570    15029    15057 1
   15571    15029    15058 1
   15572    15030    15031 1
   15573    15030    15059 1
   15574    15030    15060 1
   15575    15031    15061 1
   15576    15031    15062 1
   15577    15031    15063 1
   15578    15032    15033 1
   15579    15032    15064 1
   15580    15032    15065 1
   15581    15033    15034 1
   15582    15033    15066 1
   15583    15033    15067 1
   15584    15034    15035 1
   15585    15034    15068 1
   15586    15034    15069 1
   15587    15035    15036 1
   15588    15035    15070 1
   15589    15035    15071 1
   15590    15036    15037 1
   15591    15036    15072 1
   15592    15036    15073 1
   15593    15037    15038 1
   15594    15037    15074 1
   15595    15037    15075 1
   15596    15038    15039 1
   15597    15038    15076 1
   15598    15038    15077 1
   15599    15039    15078 1
   15600    15039    15079 1
   15601    15039    15080 1
   15602    15081    15082 1
   15603    15081    15088 1
   15604    15081    15104 1
   15605    15081    15165 1
   15606    15082    15083 1
   15607    15082    15086 1
   15608    15083    15084 1
   15609    15083    15087 1
   15610    15084    15085 1
   15611    15085    15086 1
   15612    15086    15092 1
   15613    15087    15088 1
   15614    15087    15091 1
   15615    15088    15089 1
   15616    15089    15090 1
   15617    15089    15093 1
   15618    15090    15091 1
   15619    15090    15096 1
   15620    15094    15095 1
   15621    15094    15102 1
   15622    15095    15096 1
   15623    15095    15103 1
   15624    15096    15097 1
   15625    15097    15098 1
   15626    15097    15101 1
   15627    15098    15099 1
   15628    15099    15100 1
   15629    15100    15101 1
   15630    15101    15102 1
   15631    15102    15230 1
   15632    15104    15105 1
   15633    15104    15124 1
   15634    15104    15125 1
   15635    15105    15106 1
   15636    15105    15116 1
   15637    15105    15126 1
   15638    15106    15107 1
   15639    15106    15127 1
   15640    15106    15128 1
   15641    15107    15108 1
   15642    15107    15129 1
   15643    15107    15130 1
   15644    15108    15109 1
   15645    15108    15131 1
   15646    15108    15132 1
   15647    15109    15110 1
   15648    15109    15133 1
   15649    15109    15134 1
   15650    15110    15111 1
   15651    15110    15135 1
   15652    15110    15136 1
   15653    15111    15112 1
   15654    15111    15137 1
   15655    15111    15138 1
   15656    15112    15113 1
   15657    15112    15139 1
   15658    15112    15140 1
   15659    15113    15114 1
   15660    15113    15141 1
   15661    15113    15142 1
   15662    15114    15115 1
   15663    15114    15143 1
   15664    15114    15144 1
   15665    15115    15145 1
   15666    15115    15146 1
   15667    15115    15147 1
   15668    15116    15117 1
   15669    15116    15148 1
   15670    15116    15149 1
   15671    15117    15118 1
   15672    15117    15150 1
   15673    15117    15151 1
   15674    15118    15119 1
   15675    15118    15152 1
   15676    15118    15153 1
   15677    15119    15120 1
   15678    15119    15154 1
   15679    15119    15155 1
   15680    15120    15121 1
   15681    15120    15156 1
   15682    15120    15157 1
   15683    15121    15122 1
   15684    15121    15158 1
   15685    15121    15159 1
   15686    15122    15123 1
   15687    15122    15160 1
   15688    15122    15161 1
   15689    15123    15162 1
   15690    15123    15163 1
   15691    15123    15164 1
   15692    15165    15166 1
   15693    15165    15185 1
   15694    15165    15186 1
   15695    15166    15167 1
   15696    15166    15177 1
   15697    15166    15187 1
   15698    15167    15168 1
   15699    15167    15188 1
   15700    15167    15189 1
   15701    15168    15169 1
   15702    15168    15190 1
   15703    15168    15191 1
   15704    15169    15170 1
   15705    15169    15192 1
   15706    15169    15193 1
   15707    15170    15171 1
   15708    15170    15194 1
   15709    15170    15195 1
   15710    15171    15172 1
   15711    15171    15196 1
   15712    15171    15197 1
   15713    15172    15173 1
   15714    15172    15198 1
   15715    15172    15199 1
   15716    15173    15174 1
   15717    15173    15200 1
   15718    15173    15201 1
   15719    15174    15175 1
   15720    15174    15202 1
   15721    15174    15203 1
   15722    15175    15176 1
   15723    15175    15204 1
   15724    15175    15205 1
   15725    15176    15206 1
   15726    15176    15207 1
   15727    15176    15208 1
   15728    15177    15178 1
   15729    15177    15209 1
   15730    15177    15210 1
   15731    15178    15179 1
   15732    15178    15211 1
   15733    15178    15212 1
   15734    15179    15180 1
   15735    15179    15213 1
   15736    15179    15214 1
   15737    15180    15181 1
   15738    15180    15215 1
   15739    15180    15216 1
   15740    15181    15182 1
   15741    15181    15217 1
   15742    15181    15218 1
   15743    15182    15183 1
   15744    15182    15219 1
   15745    15182    15220 1
   15746    15183    15184 1
   15747    15183    15221 1
   15748    15183    15222 1
   15749    15184    15223 1
   15750    15184    15224 1
   15751    15184    15225 1
   15752    15226    15227 1
   15753    15226    15233 1
   15754    15226    15249 1
   15755    15226    15310 1
   15756    15227    15228 1
   15757    15227    15231 1
   15758    15228    15229 1
   15759    15228    15232 1
   15760    15229    15230 1
   15761    15230    15231 1
   15762    15231    15237 1
   15763    15232    15233 1
   15764    15232    15236 1
   15765    15233    15234 1
   15766    15234    15235 1
   15767    15234    15238 1
   15768    15235    15236 1
   15769    15235    15241 1
   15770    15239    15240 1
   15771    15239    15247 1
   15772    15240    15241 1
   15773    15240    15248 1
   15774    15241    15242 1
   15775    15242    15243 1
   15776    15242    15246 1
   15777    15243    15244 1
   15778    15244    15245 1
   15779    15245    15246 1
   15780    15246    15247 1
   15781    15247    15375 1
   15782    15249    15250 1
   15783    15249    15269 1
   15784    15249    15270 1
   15785    15250    15251 1
   15786    15250    15261 1
   15787    15250    15271 1
   15788    15251    15252 1
   15789    15251    15272 1
   15790    15251    15273 1
   15791    15252    15253 1
   15792    15252    15274 1
   15793    15252    15275 1
   15794    15253    15254 1
   15795    15253    15276 1
   15796    15253    15277 1
   15797    15254    15255 1
   15798    15254    15278 1
   15799    15254    15279 1
   15800    15255    15256 1
   15801    15255    15280 1
   15802    15255    15281 1
   15803    15256    15257 1
   15804    15256    15282 1
   15805    15256    15283 1
   15806    15257    15258 1
   15807    15257    15284 1
   15808    15257    15285 1
   15809    15258    15259 1
   15810    15258    15286 1
   15811    15258    15287 1
   15812    15259    15260 1
   15813    15259    15288 1
   15814    15259    15289 1
   15815    15260    15290 1
   15816    15260    15291 1
   15817    15260    15292 1
   15818    15261    15262 1
   15819    15261    15293 1
   15820    15261    15294 1
   15821    15262    15263 1
   15822    15262    15295 1
   15823    15262    15296 1
   15824    15263    15264 1
   15825    15263    15297 1
   15826    15263    15298 1
   15827    15264    15265 1
   15828    15264    15299 1
   15829    15264    15300 1
   15830    15265    15266 1
   15831    15265    15301 1
   15832    15265    15302 1
   15833    15266    15267 1
   15834    15266    15303 1
   15835    15266    15304 1
   15836    15267    15268 1
   15837    15267    15305 1
   15838    15267    15306 1
   15839    15268    15307 1
   15840    15268    15308 1
   15841    15268    15309 1
   15842    15310    15311 1
   15843    15310    15330 1
   15844    15310    15331 1
   15845    15311    15312 1
   15846    15311    15322 1
   15847    15311    15332 1
   15848    15312    15313 1
   15849    15312    15333 1
   15850    15312    15334 1
   15851    15313    15314 1
   15852    15313    15335 1
   15853    15313    15336 1
   15854    15314    15315 1
   15855    15314    15337 1
   15856    15314    15338 1
   15857    15315    15316 1
   15858    15315    15339 1
   15859    15315    15340 1
   15860    15316    15317 1
   15861    15316    15341 1
   15862    15316    15342 1
   15863    15317    15318 1
   15864    15317    15343 1
   15865    15317    15344 1
   15866    15318    15319 1
   15867    15318    15345 1
   15868    15318    15346 1
   15869    15319    15320 1
   15870    15319    15347 1
   15871    15319    15348 1
   15872    15320    15321 1
   15873    15320    15349 1
   15874    15320    15350 1
   15875    15321    15351 1
   15876    15321    15352 1
   15877    15321    15353 1
   15878    15322    15323 1
   15879    15322    15354 1
   15880    15322    15355 1
   15881    15323    15324 1
   15882    15323    15356 1
   15883    15323    15357 1
   15884    15324    15325 1
   15885    15324    15358 1
   15886    15324    15359 1
   15887    15325    15326 1
   15888    15325    15360 1
   15889    15325    15361 1
   15890    15326    15327 1
   15891    15326    15362 1
   15892    15326    15363 1
   15893    15327    15328 1
   15894    15327    15364 1
   15895    15327    15365 1
   15896    15328    15329 1
   15897    15328    15366 1
   15898    15328    15367 1
   15899    15329    15368 1
   15900    15329    15369 1
   15901    15329    15370 1
   15902    15371    15372 1
   15903    15371    15378 1
   15904    15371    15394 1
   15905    15371    15455 1
   15906    15372    15373 1
   15907    15372    15376 1
   15908    15373    15374 1
   15909    15373    15377 1
   15910    15374    15375 1
   15911    15375    15376 1
   15912    15376    15382 1
   15913    15377    15378 1
   15914    15377    15381 1
   15915    15378    15379 1
   15916    15379    15380 1
   15917    15379    15383 1
   15918    15380    15381 1
   15919    15380    15386 1
   15920    15384    15385 1
   15921    15384    15392 1
   15922    15385    15386 1
   15923    15385    15393 1
   15924    15386    15387 1
   15925    15387    15388 1
   15926    15387    15391 1
   15927    15388    15389 1
   15928    15389    15390 1
   15929    15390    15391 1
   15930    15391    15392 1
   15931    15392    15520 1
   15932    15394    15395 1
   15933    15394    15414 1
   15934    15394    15415 1
   15935    15395    15396 1
   15936    15395    15406 1
   15937    15395    15416 1
   15938    15396    15397 1
   15939    15396    15417 1
   15940    15396    15418 1
   15941    15397    15398 1
   15942    15397    15419 1
   15943    15397    15420 1
   15944    15398    15399 1
   15945    15398    15421 1
   15946    15398    15422 1
   15947    15399    15400 1
   15948    15399    15423 1
   15949    15399    15424 1
   15950    15400    15401 1
   15951    15400    15425 1
   15952    15400    15426 1
   15953    15401    15402 1
   15954    15401    15427 1
   15955    15401    15428 1
   15956    15402    15403 1
   15957    15402    15429 1
   15958    15402    15430 1
   15959    15403    15404 1
   15960    15403    15431 1
   15961    15403    15432 1
   15962    15404    15405 1
   15963    15404    15433 1
   15964    15404    15434 1
   15965    15405    15435 1
   15966    15405    15436 1
   15967    15405    15437 1
   15968    15406    15407 1
   15969    15406    15438 1
   15970    15406    15439 1
   15971    15407    15408 1
   15972    15407    15440 1
   15973    15407    15441 1
   15974    15408    15409 1
   15975    15408    15442 1
   15976    15408    15443 1
   15977    15409    15410 1
   15978    15409    15444 1
   15979    15409    15445 1
   15980    15410    15411 1
   15981    15410    15446 1
   15982    15410    15447 1
   15983    15411    15412 1
   15984    15411    15448 1
   15985    15411    15449 1
   15986    15412    15413 1
   15987    15412    15450 1
   15988    15412    15451 1
   15989    15413    15452 1
   15990    15413    15453 1
   15991    15413    15454 1
   15992    15455    15456 1
   15993    15455    15475 1
   15994    15455    15476 1
   15995    15456    15457 1
   15996    15456    15467 1
   15997    15456    15477 1
   15998    15457    15458 1
   15999    15457    15478 1
   16000    15457    15479 1
   16001    15458    15459 1
   16002    15458    15480 1
   16003    15458    15481 1
   16004    15459    15460 1
   16005    15459    15482 1
   16006    15459    15483 1
   16007    15460    15461 1
   16008    15460    15484 1
   16009    15460    15485 1
   16010    15461    15462 1
   16011    15461    15486 1
   16012    15461    15487 1
   16013    15462    15463 1
   16014    15462    15488 1
   16015    15462    15489 1
   16016    15463    15464 1
   16017    15463    15490 1
   16018    15463    15491 1
   16019    15464    15465 1
   16020    15464    15492 1
   16021    15464    15493 1
   16022    15465    15466 1
   16023    15465    15494 1
   16024    15465    15495 1
   16025    15466    15496 1
   16026    15466    15497 1
   16027    15466    15498 1
   16028    15467    15468 1
   16029    15467    15499 1
   16030    15467    15500 1
   16031    15468    15469 1
   16032    15468    15501 1
   16033    15468    15502 1
   16034    15469    15470 1
   16035    15469    15503 1
   16036    15469    15504 1
   16037    15470    15471 1
   16038    15470    15505 1
   16039    15470    15506 1
   16040    15471    15472 1
   16041    15471    15507 1
   16042    15471    15508 1
   16043    15472    15473 1
   16044    15472    15509 1
   16045    15472    15510 1
   16046    15473    15474 1
   16047    15473    15511 1
   16048    15473    15512 1
   16049    15474    15513 1
   16050    15474    15514 1
   16051    15474    15515 1
   16052    15516    15517 1
   16053    15516    15523 1
   16054    15516    15539 1
   16055    15516    15600 1
   16056    15517    15518 1
   16057    15517    15521 1
   16058    15518    15519 1
   16059    15518    15522 1
   16060    15519    15520 1
   16061    15520    15521 1
   16062    15521    15527 1
   16063    15522    15523 1
   16064    15522    15526 1
   16065    15523    15524 1
   16066    15524    15525 1
   16067    15524    15528 1
   16068    15525    15526 1
   16069    15525    15531 1
   16070    15529    15530 1
   16071    15529    15537 1
   16072    15530    15531 1
   16073    15530    15538 1
   16074    15531    15532 1
   16075    15532    15533 1
   16076    15532    15536 1
   16077    15533    15534 1
   16078    15534    15535 1
   16079    15535    15536 1
   16080    15536    15537 1
   16081    15537    15665 1
   16082    15539    15540 1
   16083    15539    15559 1
   16084    15539    15560 1
   16085    15540    15541 1
   16086    15540    15551 1
   16087    15540    15561 1
   16088    15541    15542 1
   16089    15541    15562 1
   16090    15541    15563 1
   16091    15542    15543 1
   16092    15542    15564 1
   16093    15542    15565 1
   16094    15543    15544 1
   16095    15543    15566 1
   16096    15543    15567 1
   16097    15544    15545 1
   16098    15544    15568 1
   16099    15544    15569 1
   16100    15545    15546 1
   16101    15545    15570 1
   16102    15545    15571 1
   16103    15546    15547 1
   16104    15546    15572 1
   16105    15546    15573 1
   16106    15547    15548 1
   16107    15547    15574 1
   16108    15547    15575 1
   16109    15548    15549 1
   16110    15548    15576 1
   16111    15548    15577 1
   16112    15549    15550 1
   16113    15549    15578 1
   16114    15549    15579 1
   16115    15550    15580 1
   16116    15550    15581 1
   16117    15550    15582 1
   16118    15551    15552 1
   16119    15551    15583 1
   16120    15551    15584 1
   16121    15552    15553 1
   16122    15552    15585 1
   16123    15552    15586 1
   16124    15553    15554 1
   16125    15553    15587 1
   16126    15553    15588 1
   16127    15554    15555 1
   16128    15554    15589 1
   16129    15554    15590 1
   16130    15555    15556 1
   16131    15555    15591 1
   16132    15555    15592 1
   16133    15556    15557 1
   16134    15556    15593 1
   16135    15556    15594 1
   16136    15557    15558 1
   16137    15557    15595 1
   16138    15557    15596 1
   16139    15558    15597 1
   16140    15558    15598 1
   16141    15558    15599 1
   16142    15600    15601 1
   16143    15600    15620 1
   16144    15600    15621 1
   16145    15601    15602 1
   16146    15601    15612 1
   16147    15601    15622 1
   16148    15602    15603 1
   16149    15602    15623 1
   16150    15602    15624 1
   16151    15603    15604 1
   16152    15603    15625 1
   16153    15603    15626 1
   16154    15604    15605 1
   16155    15604    15627 1
   16156    15604    15628 1
   16157    15605    15606 1
   16158    15605    15629 1
   16159    15605    15630 1
   16160    15606    15607 1
   16161    15606    15631 1
   16162    15606    15632 1
   16163    15607    15608 1
   16164    15607    15633 1
   16165    15607    15634 1
   16166    15608    15609 1
   16167    15608    15635 1
   16168    15608    15636 1
   16169    15609    15610 1
   16170    15609    15637 1
   16171    15609    15638 1
   16172    15610    15611 1
   16173    15610    15639 1
   16174    15610    15640 1
   16175    15611    15641 1
   16176    15611    15642 1
   16177    15611    15643 1
   16178    15612    15613 1
   16179    15612    15644 1
   16180    15612    15645 1
   16181    15613    15614 1
   16182    15613    15646 1
   16183    15613    15647 1
   16184    15614    15615 1
   16185    15614    15648 1
   16186    15614    15649 1
   16187    15615    15616 1
   16188    15615    15650 1
   16189    15615    15651 1
   16190    15616    15617 1
   16191    15616    15652 1
   16192    15616    15653 1
   16193    15617    15618 1
   16194    15617    15654 1
   16195    15617    15655 1
   16196    15618    15619 1
   16197    15618    15656 1
   16198    15618    15657 1
   16199    15619    15658 1
   16200    15619    15659 1
   16201    15619    15660 1
   16202    15661    15662 1
   16203    15661    15668 1
   16204    15661    15684 1
   16205    15661    15745 1
   16206    15662    15663 1
   16207    15662    15666 1
   16208    15663    15664 1
   16209    15663    15667 1
   16210    15664    15665 1
   16211    15665    15666 1
   16212    15666    15672 1
   16213    15667    15668 1
   16214    15667    15671 1
   16215    15668    15669 1
   16216    15669    15670 1
   16217    15669    15673 1
   16218    15670    15671 1
   16219    15670    15676 1
   16220    15674    15675 1
   16221    15674    15682 1
   16222    15675    15676 1
   16223    15675    15683 1
   16224    15676    15677 1
   16225    15677    15678 1
   16226    15677    15681 1
   16227    15678    15679 1
   16228    15679    15680 1
   16229    15680    15681 1
   16230    15681    15682 1
   16231    15682    15810 1
   16232    15684    15685 1
   16233    15684    15704 1
   16234    15684    15705 1
   16235    15685    15686 1
   16236    15685    15696 1
   16237    15685    15706 1
   16238    15686    15687 1
   16239    15686    15707 1
   16240    15686    15708 1
   16241    15687    15688 1
   16242    15687    15709 1
   16243    15687    15710 1
   16244    15688    15689 1
   16245    15688    15711 1
   16246    15688    15712 1
   16247    15689    15690 1
   16248    15689    15713 1
   16249    15689    15714 1
   16250    15690    15691 1
   16251    15690    15715 1
   16252    15690    15716 1
   16253    15691    15692 1
   16254    15691    15717 1
   16255    15691    15718 1
   16256    15692    15693 1
   16257    15692    15719 1
   16258    15692    15720 1
   16259    15693    15694 1
   16260    15693    15721 1
   16261    15693    15722 1
   16262    15694    15695 1
   16263    15694    15723 1
   16264    15694    15724 1
   16265    15695    15725 1
   16266    15695    15726 1
   16267    15695    15727 1
   16268    15696    15697 1
   16269    15696    15728 1
   16270    15696    15729 1
   16271    15697    15698 1
   16272    15697    15730 1
   16273    15697    15731 1
   16274    15698    15699 1
   16275    15698    15732 1
   16276    15698    15733 1
   16277    15699    15700 1
   16278    15699    15734 1
   16279    15699    15735 1
   16280    15700    15701 1
   16281    15700    15736 1
   16282    15700    15737 1
   16283    15701    15702 1
   16284    15701    15738 1
   16285    15701    15739 1
   16286    15702    15703 1
   16287    15702    15740 1
   16288    15702    15741 1
   16289    15703    15742 1
   16290    15703    15743 1
   16291    15703    15744 1
   16292    15745    15746 1
   16293    15745    15765 1
   16294    15745    15766 1
   16295    15746    15747 1
   16296    15746    15757 1
   16297    15746    15767 1
   16298    15747    15748 1
   16299    15747    15768 1
   16300    15747    15769 1
   16301    15748    15749 1
   16302    15748    15770 1
   16303    15748    15771 1
   16304    15749    15750 1
   16305    15749    15772 1
   16306    15749    15773 1
   16307    15750    15751 1
   16308    15750    15774 1
   16309    15750    15775 1
   16310    15751    15752 1
   16311    15751    15776 1
   16312    15751    15777 1
   16313    15752    15753 1
   16314    15752    15778 1
   16315    15752    15779 1
   16316    15753    15754 1
   16317    15753    15780 1
   16318    15753    15781 1
   16319    15754    15755 1
   16320    15754    15782 1
   16321    15754    15783 1
   16322    15755    15756 1
   16323    15755    15784 1
   16324    15755    15785 1
   16325    15756    15786 1
   16326    15756    15787 1
   16327    15756    15788 1
   16328    15757    15758 1
   16329    15757    15789 1
   16330    15757    15790 1
   16331    15758    15759 1
   16332    15758    15791 1
   16333    15758    15792 1
   16334    15759    15760 1
   16335    15759    15793 1
   16336    15759    15794 1
   16337    15760    15761 1
   16338    15760    15795 1
   16339    15760    15796 1
   16340    15761    15762 1
   16341    15761    15797 1
   16342    15761    15798 1
   16343    15762    15763 1
   16344    15762    15799 1
   16345    15762    15800 1
   16346    15763    15764 1
   16347    15763    15801 1
   16348    15763    15802 1
   16349    15764    15803 1
   16350    15764    15804 1
   16351    15764    15805 1
   16352    15806    15807 1
   16353    15806    15813 1
   16354    15806    15829 1
   16355    15806    15890 1
   16356    15807    15808 1
   16357    15807    15811 1
   16358    15808    15809 1
   16359    15808    15812 1
   16360    15809    15810 1
   16361    15810    15811 1
   16362    15811    15817 1
   16363    15812    15813 1
   16364    15812    15816 1
   16365    15813    15814 1
   16366    15814    15815 1
   16367    15814    15818 1
   16368    15815    15816 1
   16369    15815    15821 1
   16370    15819    15820 1
   16371    15819    15827 1
   16372    15820    15821 1
   16373    15820    15828 1
   16374    15821    15822 1
   16375    15822    15823 1
   16376    15822    15826 1
   16377    15823    15824 1
   16378    15824    15825 1
   16379    15825    15826 1
   16380    15826    15827 1
   16381    15827    15955 1
   16382    15829    15830 1
   16383    15829    15849 1
   16384    15829    15850 1
   16385    15830    15831 1
   16386    15830    15841 1
   16387    15830    15851 1
   16388    15831    15832 1
   16389    15831    15852 1
   16390    15831    15853 1
   16391    15832    15833 1
   16392    15832    15854 1
   16393    15832    15855 1
   16394    15833    15834 1
   16395    15833    15856 1
   16396    15833    15857 1
   16397    15834    15835 1
   16398    15834    15858 1
   16399    15834    15859 1
   16400    15835    15836 1
   16401    15835    15860 1
   16402    15835    15861 1
   16403    15836    15837 1
   16404    15836    15862 1
   16405    15836    15863 1
   16406    15837    15838 1
   16407    15837    15864 1
   16408    15837    15865 1
   16409    15838    15839 1
   16410    15838    15866 1
   16411    15838    15867 1
   16412    15839    15840 1
   16413    15839    15868 1
   16414    15839    15869 1
   16415    15840    15870 1
   16416    15840    15871 1
   16417    15840    15872 1
   16418    15841    15842 1
   16419    15841    15873 1
   16420    15841    15874 1
   16421    15842    15843 1
   16422    15842    15875 1
   16423    15842    15876 1
   16424    15843    15844 1
   16425    15843    15877 1
   16426    15843    15878 1
   16427    15844    15845 1
   16428    15844    15879 1
   16429    15844    15880 1
   16430    15845    15846 1
   16431    15845    15881 1
   16432    15845    15882 1
   16433    15846    15847 1
   16434    15846    15883 1
   16435    15846    15884 1
   16436    15847    15848 1
   16437    15847    15885 1
   16438    15847    15886 1
   16439    15848    15887 1
   16440    15848    15888 1
   16441    15848    15889 1
   16442    15890    15891 1
   16443    15890    15910 1
   16444    15890    15911 1
   16445    15891    15892 1
   16446    15891    15902 1
   16447    15891    15912 1
   16448    15892    15893 1
   16449    15892    15913 1
   16450    15892    15914 1
   16451    15893    15894 1
   16452    15893    15915 1
   16453    15893    15916 1
   16454    15894    15895 1
   16455    15894    15917 1
   16456    15894    15918 1
   16457    15895    15896 1
   16458    15895    15919 1
   16459    15895    15920 1
   16460    15896    15897 1
   16461    15896    15921 1
   16462    15896    15922 1
   16463    15897    15898 1
   16464    15897    15923 1
   16465    15897    15924 1
   16466    15898    15899 1
   16467    15898    15925 1
   16468    15898    15926 1
   16469    15899    15900 1
   16470    15899    15927 1
   16471    15899    15928 1
   16472    15900    15901 1
   16473    15900    15929 1
   16474    15900    15930 1
   16475    15901    15931 1
   16476    15901    15932 1
   16477    15901    15933 1
   16478    15902    15903 1
   16479    15902    15934 1
   16480    15902    15935 1
   16481    15903    15904 1
   16482    15903    15936 1
   16483    15903    15937 1
   16484    15904    15905 1
   16485    15904    15938 1
   16486    15904    15939 1
   16487    15905    15906 1
   16488    15905    15940 1
   16489    15905    15941 1
   16490    15906    15907 1
   16491    15906    15942 1
   16492    15906    15943 1
   16493    15907    15908 1
   16494    15907    15944 1
   16495    15907    15945 1
   16496    15908    15909 1
   16497    15908    15946 1
   16498    15908    15947 1
   16499    15909    15948 1
   16500    15909    15949 1
   16501    15909    15950 1
   16502    15951    15952 1
   16503    15951    15958 1
   16504    15951    15974 1
   16505    15951    16035 1
   16506    15952    15953 1
   16507    15952    15956 1
   16508    15953    15954 1
   16509    15953    15957 1
   16510    15954    15955 1
   16511    15955    15956 1
   16512    15956    15962 1
   16513    15957    15958 1
   16514    15957    15961 1
   16515    15958    15959 1
   16516    15959    15960 1
   16517    15959    15963 1
   16518    15960    15961 1
   16519    15960    15966 1
   16520    15964    15965 1
   16521    15964    15972 1
   16522    15965    15966 1
   16523    15965    15973 1
   16524    15966    15967 1
   16525    15967    15968 1
   16526    15967    15971 1
   16527    15968    15969 1
   16528    15969    15970 1
   16529    15970    15971 1
   16530    15971    15972 1
   16531    15972    16100 1
   16532    15974    15975 1
   16533    15974    15994 1
   16534    15974    15995 1
   16535    15975    15976 1
   16536    15975    15986 1
   16537    15975    15996 1
   16538    15976    15977 1
   16539    15976    15997 1
   16540    15976    15998 1
   16541    15977    15978 1
   16542    15977    15999 1
   16543    15977    16000 1
   16544    15978    15979 1
   16545    15978    16001 1
   16546    15978    16002 1
   16547    15979    15980 1
   16548    15979    16003 1
   16549    15979    16004 1
   16550    15980    15981 1
   16551    15980    16005 1
   16552    15980    16006 1
   16553    15981    15982 1
   16554    15981    16007 1
   16555    15981    16008 1
   16556    15982    15983 1
   16557    15982    16009 1
   16558    15982    16010 1
   16559    15983    15984 1
   16560    15983    16011 1
   16561    15983    16012 1
   16562    15984    15985 1
   16563    15984    16013 1
   16564    15984    16014 1
   16565    15985    16015 1
   16566    15985    16016 1
   16567    15985    16017 1
   16568    15986    15987 1
   16569    15986    16018 1
   16570    15986    16019 1
   16571    15987    15988 1
   16572    15987    16020 1
   16573    15987    16021 1
   16574    15988    15989 1
   16575    15988    16022 1
   16576    15988    16023 1
   16577    15989    15990 1
   16578    15989    16024 1
   16579    15989    16025 1
   16580    15990    15991 1
   16581    15990    16026 1
   16582    15990    16027 1
   16583    15991    15992 1
   16584    15991    16028 1
   16585    15991    16029 1
   16586    15992    15993 1
   16587    15992    16030 1
   16588    15992    16031 1
   16589    15993    16032 1
   16590    15993    16033 1
   16591    15993    16034 1
   16592    16035    16036 1
   16593    16035    16055 1
   16594    16035    16056 1
   16595    16036    16037 1
   16596    16036    16047 1
   16597    16036    16057 1
   16598    16037    16038 1
   16599    16037    16058 1
   16600    16037    16059 1
   16601    16038    16039 1
   16602    16038    16060 1
   16603    16038    16061 1
   16604    16039    16040 1
   16605    16039    16062 1
   16606    16039    16063 1
   16607    16040    16041 1
   16608    16040    16064 1
   16609    16040    16065 1
   16610    16041    16042 1
   16611    16041    16066 1
   16612    16041    16067 1
   16613    16042    16043 1
   16614    16042    16068 1
   16615    16042    16069 1
   16616    16043    16044 1
   16617    16043    16070 1
   16618    16043    16071 1
   16619    16044    16045 1
   16620    16044    16072 1
   16621    16044    16073 1
   16622    16045    16046 1
   16623    16045    16074 1
   16624    16045    16075 1
   16625    16046    16076 1
   16626    16046    16077 1
   16627    16046    16078 1
   16628    16047    16048 1
   16629    16047    16079 1
   16630    16047    16080 1
   16631    16048    16049 1
   16632    16048    16081 1
   16633    16048    16082 1
   16634    16049    16050 1
   16635    16049    16083 1
   16636    16049    16084 1
   16637    16050    16051 1
   16638    16050    16085 1
   16639    16050    16086 1
   16640    16051    16052 1
   16641    16051    16087 1
   16642    16051    16088 1
   16643    16052    16053 1
   16644    16052    16089 1
   16645    16052    16090 1
   16646    16053    16054 1
   16647    16053    16091 1
   16648    16053    16092 1
   16649    16054    16093 1
   16650    16054    16094 1
   16651    16054    16095 1
   16652    16096    16097 1
   16653    16096    16103 1
   16654    16096    16119 1
   16655    16096    16180 1
   16656    16097    16098 1
   16657    16097    16101 1
   16658    16098    16099 1
   16659    16098    16102 1
   16660    16099    16100 1
   16661    16100    16101 1
   16662    16101    16107 1
   16663    16102    16103 1
   16664    16102    16106 1
   16665    16103    16104 1
   16666    16104    16105 1
   16667    16104    16108 1
   16668    16105    16106 1
   16669    16105    16111 1
   16670    16109    16110 1
   16671    16109    16117 1
   16672    16110    16111 1
   16673    16110    16118 1
   16674    16111    16112 1
   16675    16112    16113 1
   16676    16112    16116 1
   16677    16113    16114 1
   16678    16114    16115 1
   16679    16115    16116 1
   16680    16116    16117 1
   16681    16117    16245 1
   16682    16119    16120 1
   16683    16119    16139 1
   16684    16119    16140 1
   16685    16120    16121 1
   16686    16120    16131 1
   16687    16120    16141 1
   16688    16121    16122 1
   16689    16121    16142 1
   16690    16121    16143 1
   16691    16122    16123 1
   16692    16122    16144 1
   16693    16122    16145 1
   16694    16123    16124 1
   16695    16123    16146 1
   16696    16123    16147 1
   16697    16124    16125 1
   16698    16124    16148 1
   16699    16124    16149 1
   16700    16125    16126 1
   16701    16125    16150 1
   16702    16125    16151 1
   16703    16126    16127 1
   16704    16126    16152 1
   16705    16126    16153 1
   16706    16127    16128 1
   16707    16127    16154 1
   16708    16127    16155 1
   16709    16128    16129 1
   16710    16128    16156 1
   16711    16128    16157 1
   16712    16129    16130 1
   16713    16129    16158 1
   16714    16129    16159 1
   16715    16130    16160 1
   16716    16130    16161 1
   16717    16130    16162 1
   16718    16131    16132 1
   16719    16131    16163 1
   16720    16131    16164 1
   16721    16132    16133 1
   16722    16132    16165 1
   16723    16132    16166 1
   16724    16133    16134 1
   16725    16133    16167 1
   16726    16133    16168 1
   16727    16134    16135 1
   16728    16134    16169 1
   16729    16134    16170 1
   16730    16135    16136 1
   16731    16135    16171 1
   16732    16135    16172 1
   16733    16136    16137 1
   16734    16136    16173 1
   16735    16136    16174 1
   16736    16137    16138 1
   16737    16137    16175 1
   16738    16137    16176 1
   16739    16138    16177 1
   16740    16138    16178 1
   16741    16138    16179 1
   16742    16180    16181 1
   16743    16180    16200 1
   16744    16180    16201 1
   16745    16181    16182 1
   16746    16181    16192 1
   16747    16181    16202 1
   16748    16182    16183 1
   16749    16182    16203 1
   16750    16182    16204 1
   16751    16183    16184 1
   16752    16183    16205 1
   16753    16183    16206 1
   16754    16184    16185 1
   16755    16184    16207 1
   16756    16184    16208 1
   16757    16185    16186 1
   16758    16185    16209 1
   16759    16185    16210 1
   16760    16186    16187 1
   16761    16186    16211 1
   16762    16186    16212 1
   16763    16187    16188 1
   16764    16187    16213 1
   16765    16187    16214 1
   16766    16188    16189 1
   16767    16188    16215 1
   16768    16188    16216 1
   16769    16189    16190 1
   16770    16189    16217 1
   16771    16189    16218 1
   16772    16190    16191 1
   16773    16190    16219 1
   16774    16190    16220 1
   16775    16191    16221 1
   16776    16191    16222 1
   16777    16191    16223 1
   16778    16192    16193 1
   16779    16192    16224 1
   16780    16192    16225 1
   16781    16193    16194 1
   16782    16193    16226 1
   16783    16193    16227 1
   16784    16194    16195 1
   16785    16194    16228 1
   16786    16194    16229 1
   16787    16195    16196 1
   16788    16195    16230 1
   16789    16195    16231 1
   16790    16196    16197 1
   16791    16196    16232 1
   16792    16196    16233 1
   16793    16197    16198 1
   16794    16197    16234 1
   16795    16197    16235 1
   16796    16198    16199 1
   16797    16198    16236 1
   16798    16198    16237 1
   16799    16199    16238 1
   16800    16199    16239 1
   16801    16199    16240 1
   16802    16241    16242 1
   16803    16241    16248 1
   16804    16241    16264 1
   16805    16241    16325 1
   16806    16242    16243 1
   16807    16242    16246 1
   16808    16243    16244 1
   16809    16243    16247 1
   16810    16244    16245 1
   16811    16245    16246 1
   16812    16246    16252 1
   16813    16247    16248 1
   16814    16247    16251 1
   16815    16248    16249 1
   16816    16249    16250 1
   16817    16249    16253 1
   16818    16250    16251 1
   16819    16250    16256 1
   16820    16254    16255 1
   16821    16254    16262 1
   16822    16255    16256 1
   16823    16255    16263 1
   16824    16256    16257 1
   16825    16257    16258 1
   16826    16257    16261 1
   16827    16258    16259 1
   16828    16259    16260 1
   16829    16260    16261 1
   16830    16261    16262 1
   16831    16262    16390 1
   16832    16264    16265 1
   16833    16264    16284 1
   16834    16264    16285 1
   16835    16265    16266 1
   16836    16265    16276 1
   16837    16265    16286 1
   16838    16266    16267 1
   16839    16266    16287 1
   16840    16266    16288 1
   16841    16267    16268 1
   16842    16267    16289 1
   16843    16267    16290 1
   16844    16268    16269 1
   16845    16268    16291 1
   16846    16268    16292 1
   16847    16269    16270 1
   16848    16269    16293 1
   16849    16269    16294 1
   16850    16270    16271 1
   16851    16270    16295 1
   16852    16270    16296 1
   16853    16271    16272 1
   16854    16271    16297 1
   16855    16271    16298 1
   16856    16272    16273 1
   16857    16272    16299 1
   16858    16272    16300 1
   16859    16273    16274 1
   16860    16273    16301 1
   16861    16273    16302 1
   16862    16274    16275 1
   16863    16274    16303 1
   16864    16274    16304 1
   16865    16275    16305 1
   16866    16275    16306 1
   16867    16275    16307 1
   16868    16276    16277 1
   16869    16276    16308 1
   16870    16276    16309 1
   16871    16277    16278 1
   16872    16277    16310 1
   16873    16277    16311 1
   16874    16278    16279 1
   16875    16278    16312 1
   16876    16278    16313 1
   16877    16279    16280 1
   16878    16279    16314 1
   16879    16279    16315 1
   16880    16280    16281 1
   16881    16280    16316 1
   16882    16280    16317 1
   16883    16281    16282 1
   16884    16281    16318 1
   16885    16281    16319 1
   16886    16282    16283 1
   16887    16282    16320 1
   16888    16282    16321 1
   16889    16283    16322 1
   16890    16283    16323 1
   16891    16283    16324 1
   16892    16325    16326 1
   16893    16325    16345 1
   16894    16325    16346 1
   16895    16326    16327 1
   16896    16326    16337 1
   16897    16326    16347 1
   16898    16327    16328 1
   16899    16327    16348 1
   16900    16327    16349 1
   16901    16328    16329 1
   16902    16328    16350 1
   16903    16328    16351 1
   16904    16329    16330 1
   16905    16329    16352 1
   16906    16329    16353 1
   16907    16330    16331 1
   16908    16330    16354 1
   16909    16330    16355 1
   16910    16331    16332 1
   16911    16331    16356 1
   16912    16331    16357 1
   16913    16332    16333 1
   16914    16332    16358 1
   16915    16332    16359 1
   16916    16333    16334 1
   16917    16333    16360 1
   16918    16333    16361 1
   16919    16334    16335 1
   16920    16334    16362 1
   16921    16334    16363 1
   16922    16335    16336 1
   16923    16335    16364 1
   16924    16335    16365 1
   16925    16336    16366 1
   16926    16336    16367 1
   16927    16336    16368 1
   16928    16337    16338 1
   16929    16337    16369 1
   16930    16337    16370 1
   16931    16338    16339 1
   16932    16338    16371 1
   16933    16338    16372 1
   16934    16339    16340 1
   16935    16339    16373 1
   16936    16339    16374 1
   16937    16340    16341 1
   16938    16340    16375 1
   16939    16340    16376 1
   16940    16341    16342 1
   16941    16341    16377 1
   16942    16341    16378 1
   16943    16342    16343 1
   16944    16342    16379 1
   16945    16342    16380 1
   16946    16343    16344 1
   16947    16343    16381 1
   16948    16343    16382 1
   16949    16344    16383 1
   16950    16344    16384 1
   16951    16344    16385 1
   16952    16386    16387 1
   16953    16386    16393 1
   16954    16386    16409 1
   16955    16386    16470 1
   16956    16387    16388 1
   16957    16387    16391 1
   16958    16388    16389 1
   16959    16388    16392 1
   16960    16389    16390 1
   16961    16390    16391 1
   16962    16391    16397 1
   16963    16392    16393 1
   16964    16392    16396 1
   16965    16393    16394 1
   16966    16394    16395 1
   16967    16394    16398 1
   16968    16395    16396 1
   16969    16395    16401 1
   16970    16399    16400 1
   16971    16399    16407 1
   16972    16400    16401 1
   16973    16400    16408 1
   16974    16401    16402 1
   16975    16402    16403 1
   16976    16402    16406 1
   16977    16403    16404 1
   16978    16404    16405 1
   16979    16405    16406 1
   16980    16406    16407 1
   16981    16407    16535 1
   16982    16409    16410 1
   16983    16409    16429 1
   16984    16409    16430 1
   16985    16410    16411 1
   16986    16410    16421 1
   16987    16410    16431 1
   16988    16411    16412 1
   16989    16411    16432 1
   16990    16411    16433 1
   16991    16412    16413 1
   16992    16412    16434 1
   16993    16412    16435 1
   16994    16413    16414 1
   16995    16413    16436 1
   16996    16413    16437 1
   16997    16414    16415 1
   16998    16414    16438 1
   16999    16414    16439 1
   17000    16415    16416 1
   17001    16415    16440 1
   17002    16415    16441 1
   17003    16416    16417 1
   17004    16416    16442 1
   17005    16416    16443 1
   17006    16417    16418 1
   17007    16417    16444 1
   17008    16417    16445 1
   17009    16418    16419 1
   17010    16418    16446 1
   17011    16418    16447 1
   17012    16419    16420 1
   17013    16419    16448 1
   17014    16419    16449 1
   17015    16420    16450 1
   17016    16420    16451 1
   17017    16420    16452 1
   17018    16421    16422 1
   17019    16421    16453 1
   17020    16421    16454 1
   17021    16422    16423 1
   17022    16422    16455 1
   17023    16422    16456 1
   17024    16423    16424 1
   17025    16423    16457 1
   17026    16423    16458 1
   17027    16424    16425 1
   17028    16424    16459 1
   17029    16424    16460 1
   17030    16425    16426 1
   17031    16425    16461 1
   17032    16425    16462 1
   17033    16426    16427 1
   17034    16426    16463 1
   17035    16426    16464 1
   17036    16427    16428 1
   17037    16427    16465 1
   17038    16427    16466 1
   17039    16428    16467 1
   17040    16428    16468 1
   17041    16428    16469 1
   17042    16470    16471 1
   17043    16470    16490 1
   17044    16470    16491 1
   17045    16471    16472 1
   17046    16471    16482 1
   17047    16471    16492 1
   17048    16472    16473 1
   17049    16472    16493 1
   17050    16472    16494 1
   17051    16473    16474 1
   17052    16473    16495 1
   17053    16473    16496 1
   17054    16474    16475 1
   17055    16474    16497 1
   17056    16474    16498 1
   17057    16475    16476 1
   17058    16475    16499 1
   17059    16475    16500 1
   17060    16476    16477 1
   17061    16476    16501 1
   17062    16476    16502 1
   17063    16477    16478 1
   17064    16477    16503 1
   17065    16477    16504 1
   17066    16478    16479 1
   17067    16478    16505 1
   17068    16478    16506 1
   17069    16479    16480 1
   17070    16479    16507 1
   17071    16479    16508 1
   17072    16480    16481 1
   17073    16480    16509 1
   17074    16480    16510 1
   17075    16481    16511 1
   17076    16481    16512 1
   17077    16481    16513 1
   17078    16482    16483 1
   17079    16482    16514 1
   17080    16482    16515 1
   17081    16483    16484 1
   17082    16483    16516 1
   17083    16483    16517 1
   17084    16484    16485 1
   17085    16484    16518 1
   17086    16484    16519 1
   17087    16485    16486 1
   17088    16485    16520 1
   17089    16485    16521 1
   17090    16486    16487 1
   17091    16486    16522 1
   17092    16486    16523 1
   17093    16487    16488 1
   17094    16487    16524 1
   17095    16487    16525 1
   17096    16488    16489 1
   17097    16488    16526 1
   17098    16488    16527 1
   17099    16489    16528 1
   17100    16489    16529 1
   17101    16489    16530 1
   17102    16531    16532 1
   17103    16531    16538 1
   17104    16531    16554 1
   17105    16531    16615 1
   17106    16532    16533 1
   17107    16532    16536 1
   17108    16533    16534 1
   17109    16533    16537 1
   17110    16534    16535 1
   17111    16535    16536 1
   17112    16536    16542 1
   17113    16537    16538 1
   17114    16537    16541 1
   17115    16538    16539 1
   17116    16539    16540 1
   17117    16539    16543 1
   17118    16540    16541 1
   17119    16540    16546 1
   17120    16544    16545 1
   17121    16544    16552 1
   17122    16545    16546 1
   17123    16545    16553 1
   17124    16546    16547 1
   17125    16547    16548 1
   17126    16547    16551 1
   17127    16548    16549 1
   17128    16549    16550 1
   17129    16550    16551 1
   17130    16551    16552 1
   17131    16552    16680 1
   17132    16554    16555 1
   17133    16554    16574 1
   17134    16554    16575 1
   17135    16555    16556 1
   17136    16555    16566 1
   17137    16555    16576 1
   17138    16556    16557 1
   17139    16556    16577 1
   17140    16556    16578 1
   17141    16557    16558 1
   17142    16557    16579 1
   17143    16557    16580 1
   17144    16558    16559 1
   17145    16558    16581 1
   17146    16558    16582 1
   17147    16559    16560 1
   17148    16559    16583 1
   17149    16559    16584 1
   17150    16560    16561 1
   17151    16560    16585 1
   17152    16560    16586 1
   17153    16561    16562 1
   17154    16561    16587 1
   17155    16561    16588 1
   17156    16562    16563 1
   17157    16562    16589 1
   17158    16562    16590 1
   17159    16563    16564 1
   17160    16563    16591 1
   17161    16563    16592 1
   17162    16564    16565 1
   17163    16564    16593 1
   17164    16564    16594 1
   17165    16565    16595 1
   17166    16565    16596 1
   17167    16565    16597 1
   17168    16566    16567 1
   17169    16566    16598 1
   17170    16566    16599 1
   17171    16567    16568 1
   17172    16567    16600 1
   17173    16567    16601 1
   17174    16568    16569 1
   17175    16568    16602 1
   17176    16568    16603 1
   17177    16569    16570 1
   17178    16569    16604 1
   17179    16569    16605 1
   17180    16570    16571 1
   17181    16570    16606 1
   17182    16570    16607 1
   17183    16571    16572 1
   17184    16571    16608 1
   17185    16571    16609 1
   17186    16572    16573 1
   17187    16572    16610 1
   17188    16572    16611 1
   17189    16573    16612 1
   17190    16573    16613 1
   17191    16573    16614 1
   17192    16615    16616 1
   17193    16615    16635 1
   17194    16615    16636 1
   17195    16616    16617 1
   17196    16616    16627 1
   17197    16616    16637 1
   17198    16617    16618 1
   17199    16617    16638 1
   17200    16617    16639 1
   17201    16618    16619 1
   17202    16618    16640 1
   17203    16618    16641 1
   17204    16619    16620 1
   17205    16619    16642 1
   17206    16619    16643 1
   17207    16620    16621 1
   17208    16620    16644 1
   17209    16620    16645 1
   17210    16621    16622 1
   17211    16621    16646 1
   17212    16621    16647 1
   17213    16622    16623 1
   17214    16622    16648 1
   17215    16622    16649 1
   17216    16623    16624 1
   17217    16623    16650 1
   17218    16623    16651 1
   17219    16624    16625 1
   17220    16624    16652 1
   17221    16624    16653 1
   17222    16625    16626 1
   17223    16625    16654 1
   17224    16625    16655 1
   17225    16626    16656 1
   17226    16626    16657 1
   17227    16626    16658 1
   17228    16627    16628 1
   17229    16627    16659 1
   17230    16627    16660 1
   17231    16628    16629 1
   17232    16628    16661 1
   17233    16628    16662 1
   17234    16629    16630 1
   17235    16629    16663 1
   17236    16629    16664 1
   17237    16630    16631 1
   17238    16630    16665 1
   17239    16630    16666 1
   17240    16631    16632 1
   17241    16631    16667 1
   17242    16631    16668 1
   17243    16632    16633 1
   17244    16632    16669 1
   17245    16632    16670 1
   17246    16633    16634 1
   17247    16633    16671 1
   17248    16633    16672 1
   17249    16634    16673 1
   17250    16634    16674 1
   17251    16634    16675 1
   17252    16676    16677 1
   17253    16676    16683 1
   17254    16676    16699 1
   17255    16676    16760 1
   17256    16677    16678 1
   17257    16677    16681 1
   17258    16678    16679 1
   17259    16678    16682 1
   17260    16679    16680 1
   17261    16680    16681 1
   17262    16681    16687 1
   17263    16682    16683 1
   17264    16682    16686 1
   17265    16683    16684 1
   17266    16684    16685 1
   17267    16684    16688 1
   17268    16685    16686 1
   17269    16685    16691 1
   17270    16689    16690 1
   17271    16689    16697 1
   17272    16690    16691 1
   17273    16690    16698 1
   17274    16691    16692 1
   17275    16692    16693 1
   17276    16692    16696 1
   17277    16693    16694 1
   17278    16694    16695 1
   17279    16695    16696 1
   17280    16696    16697 1
   17281    16697    16825 1
   17282    16699    16700 1
   17283    16699    16719 1
   17284    16699    16720 1
   17285    16700    16701 1
   17286    16700    16711 1
   17287    16700    16721 1
   17288    16701    16702 1
   17289    16701    16722 1
   17290    16701    16723 1
   17291    16702    16703 1
   17292    16702    16724 1
   17293    16702    16725 1
   17294    16703    16704 1
   17295    16703    16726 1
   17296    16703    16727 1
   17297    16704    16705 1
   17298    16704    16728 1
   17299    16704    16729 1
   17300    16705    16706 1
   17301    16705    16730 1
   17302    16705    16731 1
   17303    16706    16707 1
   17304    16706    16732 1
   17305    16706    16733 1
   17306    16707    16708 1
   17307    16707    16734 1
   17308    16707    16735 1
   17309    16708    16709 1
   17310    16708    16736 1
   17311    16708    16737 1
   17312    16709    16710 1
   17313    16709    16738 1
   17314    16709    16739 1
   17315    16710    16740 1
   17316    16710    16741 1
   17317    16710    16742 1
   17318    16711    16712 1
   17319    16711    16743 1
   17320    16711    16744 1
   17321    16712    16713 1
   17322    16712    16745 1
   17323    16712    16746 1
   17324    16713    16714 1
   17325    16713    16747 1
   17326    16713    16748 1
   17327    16714    16715 1
   17328    16714    16749 1
   17329    16714    16750 1
   17330    16715    16716 1
   17331    16715    16751 1
   17332    16715    16752 1
   17333    16716    16717 1
   17334    16716    16753 1
   17335    16716    16754 1
   17336    16717    16718 1
   17337    16717    16755 1
   17338    16717    16756 1
   17339    16718    16757 1
   17340    16718    16758 1
   17341    16718    16759 1
   17342    16760    16761 1
   17343    16760    16780 1
   17344    16760    16781 1
   17345    16761    16762 1
   17346    16761    16772 1
   17347    16761    16782 1
   17348    16762    16763 1
   17349    16762    16783 1
   17350    16762    16784 1
   17351    16763    16764 1
   17352    16763    16785 1
   17353    16763    16786 1
   17354    16764    16765 1
   17355    16764    16787 1
   17356    16764    16788 1
   17357    16765    16766 1
   17358    16765    16789 1
   17359    16765    16790 1
   17360    16766    16767 1
   17361    16766    16791 1
   17362    16766    16792 1
   17363    16767    16768 1
   17364    16767    16793 1
   17365    16767    16794 1
   17366    16768    16769 1
   17367    16768    16795 1
   17368    16768    16796 1
   17369    16769    16770 1
   17370    16769    16797 1
   17371    16769    16798 1
   17372    16770    16771 1
   17373    16770    16799 1
   17374    16770    16800 1
   17375    16771    16801 1
   17376    16771    16802 1
   17377    16771    16803 1
   17378    16772    16773 1
   17379    16772    16804 1
   17380    16772    16805 1
   17381    16773    16774 1
   17382    16773    16806 1
   17383    16773    16807 1
   17384    16774    16775 1
   17385    16774    16808 1
   17386    16774    16809 1
   17387    16775    16776 1
   17388    16775    16810 1
   17389    16775    16811 1
   17390    16776    16777 1
   17391    16776    16812 1
   17392    16776    16813 1
   17393    16777    16778 1
   17394    16777    16814 1
   17395    16777    16815 1
   17396    16778    16779 1
   17397    16778    16816 1
   17398    16778    16817 1
   17399    16779    16818 1
   17400    16779    16819 1
   17401    16779    16820 1
   17402    16821    16822 1
   17403    16821    16828 1
   17404    16821    16844 1
   17405    16821    16905 1
   17406    16822    16823 1
   17407    16822    16826 1
   17408    16823    16824 1
   17409    16823    16827 1
   17410    16824    16825 1
   17411    16825    16826 1
   17412    16826    16832 1
   17413    16827    16828 1
   17414    16827    16831 1
   17415    16828    16829 1
   17416    16829    16830 1
   17417    16829    16833 1
   17418    16830    16831 1
   17419    16830    16836 1
   17420    16834    16835 1
   17421    16834    16842 1
   17422    16835    16836 1
   17423    16835    16843 1
   17424    16836    16837 1
   17425    16837    16838 1
   17426    16837    16841 1
   17427    16838    16839 1
   17428    16839    16840 1
   17429    16840    16841 1
   17430    16841    16842 1
   17431    16842    16970 1
   17432    16844    16845 1
   17433    16844    16864 1
   17434    16844    16865 1
   17435    16845    16846 1
   17436    16845    16856 1
   17437    16845    16866 1
   17438    16846    16847 1
   17439    16846    16867 1
   17440    16846    16868 1
   17441    16847    16848 1
   17442    16847    16869 1
   17443    16847    16870 1
   17444    16848    16849 1
   17445    16848    16871 1
   17446    16848    16872 1
   17447    16849    16850 1
   17448    16849    16873 1
   17449    16849    16874 1
   17450    16850    16851 1
   17451    16850    16875 1
   17452    16850    16876 1
   17453    16851    16852 1
   17454    16851    16877 1
   17455    16851    16878 1
   17456    16852    16853 1
   17457    16852    16879 1
   17458    16852    16880 1
   17459    16853    16854 1
   17460    16853    16881 1
   17461    16853    16882 1
   17462    16854    16855 1
   17463    16854    16883 1
   17464    16854    16884 1
   17465    16855    16885 1
   17466    16855    16886 1
   17467    16855    16887 1
   17468    16856    16857 1
   17469    16856    16888 1
   17470    16856    16889 1
   17471    16857    16858 1
   17472    16857    16890 1
   17473    16857    16891 1
   17474    16858    16859 1
   17475    16858    16892 1
   17476    16858    16893 1
   17477    16859    16860 1
   17478    16859    16894 1
   17479    16859    16895 1
   17480    16860    16861 1
   17481    16860    16896 1
   17482    16860    16897 1
   17483    16861    16862 1
   17484    16861    16898 1
   17485    16861    16899 1
   17486    16862    16863 1
   17487    16862    16900 1
   17488    16862    16901 1
   17489    16863    16902 1
   17490    16863    16903 1
   17491    16863    16904 1
   17492    16905    16906 1
   17493    16905    16925 1
   17494    16905    16926 1
   17495    16906    16907 1
   17496    16906    16917 1
   17497    16906    16927 1
   17498    16907    16908 1
   17499    16907    16928 1
   17500    16907    16929 1
   17501    16908    16909 1
   17502    16908    16930 1
   17503    16908    16931 1
   17504    16909    16910 1
   17505    16909    16932 1
   17506    16909    16933 1
   17507    16910    16911 1
   17508    16910    16934 1
   17509    16910    16935 1
   17510    16911    16912 1
   17511    16911    16936 1
   17512    16911    16937 1
   17513    16912    16913 1
   17514    16912    16938 1
   17515    16912    16939 1
   17516    16913    16914 1
   17517    16913    16940 1
   17518    16913    16941 1
   17519    16914    16915 1
   17520    16914    16942 1
   17521    16914    16943 1
   17522    16915    16916 1
   17523    16915    16944 1
   17524    16915    16945 1
   17525    16916    16946 1
   17526    16916    16947 1
   17527    16916    16948 1
   17528    16917    16918 1
   17529    16917    16949 1
   17530    16917    16950 1
   17531    16918    16919 1
   17532    16918    16951 1
   17533    16918    16952 1
   17534    16919    16920 1
   17535    16919    16953 1
   17536    16919    16954 1
   17537    16920    16921 1
   17538    16920    16955 1
   17539    16920    16956 1
   17540    16921    16922 1
   17541    16921    16957 1
   17542    16921    16958 1
   17543    16922    16923 1
   17544    16922    16959 1
   17545    16922    16960 1
   17546    16923    16924 1
   17547    16923    16961 1
   17548    16923    16962 1
   17549    16924    16963 1
   17550    16924    16964 1
   17551    16924    16965 1
   17552    16966    16967 1
   17553    16966    16973 1
   17554    16966    16989 1
   17555    16966    17050 1
   17556    16967    16968 1
   17557    16967    16971 1
   17558    16968    16969 1
   17559    16968    16972 1
   17560    16969    16970 1
   17561    16970    16971 1
   17562    16971    16977 1
   17563    16972    16973 1
   17564    16972    16976 1
   17565    16973    16974 1
   17566    16974    16975 1
   17567    16974    16978 1
   17568    16975    16976 1
   17569    16975    16981 1
   17570    16979    16980 1
   17571    16979    16987 1
   17572    16980    16981 1
   17573    16980    16988 1
   17574    16981    16982 1
   17575    16982    16983 1
   17576    16982    16986 1
   17577    16983    16984 1
   17578    16984    16985 1
   17579    16985    16986 1
   17580    16986    16987 1
   17581    16987    17115 1
   17582    16989    16990 1
   17583    16989    17009 1
   17584    16989    17010 1
   17585    16990    16991 1
   17586    16990    17001 1
   17587    16990    17011 1
   17588    16991    16992 1
   17589    16991    17012 1
   17590    16991    17013 1
   17591    16992    16993 1
   17592    16992    17014 1
   17593    16992    17015 1
   17594    16993    16994 1
   17595    16993    17016 1
   17596    16993    17017 1
   17597    16994    16995 1
   17598    16994    17018 1
   17599    16994    17019 1
   17600    16995    16996 1
   17601    16995    17020 1
   17602    16995    17021 1
   17603    16996    16997 1
   17604    16996    17022 1
   17605    16996    17023 1
   17606    16997    16998 1
   17607    16997    17024 1
   17608    16997    17025 1
   17609    16998    16999 1
   17610    16998    17026 1
   17611    16998    17027 1
   17612    16999    17000 1
   17613    16999    17028 1
   17614    16999    17029 1
   17615    17000    17030 1
   17616    17000    17031 1
   17617    17000    17032 1
   17618    17001    17002 1
   17619    17001    17033 1
   17620    17001    17034 1
   17621    17002    17003 1
   17622    17002    17035 1
   17623    17002    17036 1
   17624    17003    17004 1
   17625    17003    17037 1
   17626    17003    17038 1
   17627    17004    17005 1
   17628    17004    17039 1
   17629    17004    17040 1
   17630    17005    17006 1
   17631    17005    17041 1
   17632    17005    17042 1
   17633    17006    17007 1
   17634    17006    17043 1
   17635    17006    17044 1
   17636    17007    17008 1
   17637    17007    17045 1
   17638    17007    17046 1
   17639    17008    17047 1
   17640    17008    17048 1
   17641    17008    17049 1
   17642    17050    17051 1
   17643    17050    17070 1
   17644    17050    17071 1
   17645    17051    17052 1
   17646    17051    17062 1
   17647    17051    17072 1
   17648    17052    17053 1
   17649    17052    17073 1
   17650    17052    17074 1
   17651    17053    17054 1
   17652    17053    17075 1
   17653    17053    17076 1
   17654    17054    17055 1
   17655    17054    17077 1
   17656    17054    17078 1
   17657    17055    17056 1
   17658    17055    17079 1
   17659    17055    17080 1
   17660    17056    17057 1
   17661    17056    17081 1
   17662    17056    17082 1
   17663    17057    17058 1
   17664    17057    17083 1
   17665    17057    17084 1
   17666    17058    17059 1
   17667    17058    17085 1
   17668    17058    17086 1
   17669    17059    17060 1
   17670    17059    17087 1
   17671    17059    17088 1
   17672    17060    17061 1
   17673    17060    17089 1
   17674    17060    17090 1
   17675    17061    17091 1
   17676    17061    17092 1
   17677    17061    17093 1
   17678    17062    17063 1
   17679    17062    17094 1
   17680    17062    17095 1
   17681    17063    17064 1
   17682    17063    17096 1
   17683    17063    17097 1
   17684    17064    17065 1
   17685    17064    17098 1
   17686    17064    17099 1
   17687    17065    17066 1
   17688    17065    17100 1
   17689    17065    17101 1
   17690    17066    17067 1
   17691    17066    17102 1
   17692    17066    17103 1
   17693    17067    17068 1
   17694    17067    17104 1
   17695    17067    17105 1
   17696    17068    17069 1
   17697    17068    17106 1
   17698    17068    17107 1
   17699    17069    17108 1
   17700    17069    17109 1
   17701    17069    17110 1
   17702    17111    17112 1
   17703    17111    17118 1
   17704    17111    17134 1
   17705    17111    17195 1
   17706    17112    17113 1
   17707    17112    17116 1
   17708    17113    17114 1
   17709    17113    17117 1
   17710    17114    17115 1
   17711    17115    17116 1
   17712    17116    17122 1
   17713    17117    17118 1
   17714    17117    17121 1
   17715    17118    17119 1
   17716    17119    17120 1
   17717    17119    17123 1
   17718    17120    17121 1
   17719    17120    17126 1
   17720    17124    17125 1
   17721    17124    17132 1
   17722    17125    17126 1
   17723    17125    17133 1
   17724    17126    17127 1
   17725    17127    17128 1
   17726    17127    17131 1
   17727    17128    17129 1
   17728    17129    17130 1
   17729    17130    17131 1
   17730    17131    17132 1
   17731    17132    17260 1
   17732    17134    17135 1
   17733    17134    17154 1
   17734    17134    17155 1
   17735    17135    17136 1
   17736    17135    17146 1
   17737    17135    17156 1
   17738    17136    17137 1
   17739    17136    17157 1
   17740    17136    17158 1
   17741    17137    17138 1
   17742    17137    17159 1
   17743    17137    17160 1
   17744    17138    17139 1
   17745    17138    17161 1
   17746    17138    17162 1
   17747    17139    17140 1
   17748    17139    17163 1
   17749    17139    17164 1
   17750    17140    17141 1
   17751    17140    17165 1
   17752    17140    17166 1
   17753    17141    17142 1
   17754    17141    17167 1
   17755    17141    17168 1
   17756    17142    17143 1
   17757    17142    17169 1
   17758    17142    17170 1
   17759    17143    17144 1
   17760    17143    17171 1
   17761    17143    17172 1
   17762    17144    17145 1
   17763    17144    17173 1
   17764    17144    17174 1
   17765    17145    17175 1
   17766    17145    17176 1
   17767    17145    17177 1
   17768    17146    17147 1
   17769    17146    17178 1
   17770    17146    17179 1
   17771    17147    17148 1
   17772    17147    17180 1
   17773    17147    17181 1
   17774    17148    17149 1
   17775    17148    17182 1
   17776    17148    17183 1
   17777    17149    17150 1
   17778    17149    17184 1
   17779    17149    17185 1
   17780    17150    17151 1
   17781    17150    17186 1
   17782    17150    17187 1
   17783    17151    17152 1
   17784    17151    17188 1
   17785    17151    17189 1
   17786    17152    17153 1
   17787    17152    17190 1
   17788    17152    17191 1
   17789    17153    17192 1
   17790    17153    17193 1
   17791    17153    17194 1
   17792    17195    17196 1
   17793    17195    17215 1
   17794    17195    17216 1
   17795    17196    17197 1
   17796    17196    17207 1
   17797    17196    17217 1
   17798    17197    17198 1
   17799    17197    17218 1
   17800    17197    17219 1
   17801    17198    17199 1
   17802    17198    17220 1
   17803    17198    17221 1
   17804    17199    17200 1
   17805    17199    17222 1
   17806    17199    17223 1
   17807    17200    17201 1
   17808    17200    17224 1
   17809    17200    17225 1
   17810    17201    17202 1
   17811    17201    17226 1
   17812    17201    17227 1
   17813    17202    17203 1
   17814    17202    17228 1
   17815    17202    17229 1
   17816    17203    17204 1
   17817    17203    17230 1
   17818    17203    17231 1
   17819    17204    17205 1
   17820    17204    17232 1
   17821    17204    17233 1
   17822    17205    17206 1
   17823    17205    17234 1
   17824    17205    17235 1
   17825    17206    17236 1
   17826    17206    17237 1
   17827    17206    17238 1
   17828    17207    17208 1
   17829    17207    17239 1
   17830    17207    17240 1
   17831    17208    17209 1
   17832    17208    17241 1
   17833    17208    17242 1
   17834    17209    17210 1
   17835    17209    17243 1
   17836    17209    17244 1
   17837    17210    17211 1
   17838    17210    17245 1
   17839    17210    17246 1
   17840    17211    17212 1
   17841    17211    17247 1
   17842    17211    17248 1
   17843    17212    17213 1
   17844    17212    17249 1
   17845    17212    17250 1
   17846    17213    17214 1
   17847    17213    17251 1
   17848    17213    17252 1
   17849    17214    17253 1
   17850    17214    17254 1
   17851    17214    17255 1
   17852    17256    17257 1
   17853    17256    17263 1
   17854    17256    17279 1
   17855    17256    17340 1
   17856    17257    17258 1
   17857    17257    17261 1
   17858    17258    17259 1
   17859    17258    17262 1
   17860    17259    17260 1
   17861    17260    17261 1
   17862    17261    17267 1
   17863    17262    17263 1
   17864    17262    17266 1
   17865    17263    17264 1
   17866    17264    17265 1
   17867    17264    17268 1
   17868    17265    17266 1
   17869    17265    17271 1
   17870    17269    17270 1
   17871    17269    17277 1
   17872    17270    17271 1
   17873    17270    17278 1
   17874    17271    17272 1
   17875    17272    17273 1
   17876    17272    17276 1
   17877    17273    17274 1
   17878    17274    17275 1
   17879    17275    17276 1
   17880    17276    17277 1
   17881    17277    17405 1
   17882    17279    17280 1
   17883    17279    17299 1
   17884    17279    17300 1
   17885    17280    17281 1
   17886    17280    17291 1
   17887    17280    17301 1
   17888    17281    17282 1
   17889    17281    17302 1
   17890    17281    17303 1
   17891    17282    17283 1
   17892    17282    17304 1
   17893    17282    17305 1
   17894    17283    17284 1
   17895    17283    17306 1
   17896    17283    17307 1
   17897    17284    17285 1
   17898    17284    17308 1
   17899    17284    17309 1
   17900    17285    17286 1
   17901    17285    17310 1
   17902    17285    17311 1
   17903    17286    17287 1
   17904    17286    17312 1
   17905    17286    17313 1
   17906    17287    17288 1
   17907    17287    17314 1
   17908    17287    17315 1
   17909    17288    17289 1
   17910    17288    17316 1
   17911    17288    17317 1
   17912    17289    17290 1
   17913    17289    17318 1
   17914    17289    17319 1
   17915    17290    17320 1
   17916    17290    17321 1
   17917    17290    17322 1
   17918    17291    17292 1
   17919    17291    17323 1
   17920    17291    17324 1
   17921    17292    17293 1
   17922    17292    17325 1
   17923    17292    17326 1
   17924    17293    17294 1
   17925    17293    17327 1
   17926    17293    17328 1
   17927    17294    17295 1
   17928    17294    17329 1
   17929    17294    17330 1
   17930    17295    17296 1
   17931    17295    17331 1
   17932    17295    17332 1
   17933    17296    17297 1
   17934    17296    17333 1
   17935    17296    17334 1
   17936    17297    17298 1
   17937    17297    17335 1
   17938    17297    17336 1
   17939    17298    17337 1
   17940    17298    17338 1
   17941    17298    17339 1
   17942    17340    17341 1
   17943    17340    17360 1
   17944    17340    17361 1
   17945    17341    17342 1
   17946    17341    17352 1
   17947    17341    17362 1
   17948    17342    17343 1
   17949    17342    17363 1
   17950    17342    17364 1
   17951    17343    17344 1
   17952    17343    17365 1
   17953    17343    17366 1
   17954    17344    17345 1
   17955    17344    17367 1
   17956    17344    17368 1
   17957    17345    17346 1
   17958    17345    17369 1
   17959    17345    17370 1
   17960    17346    17347 1
   17961    17346    17371 1
   17962    17346    17372 1
   17963    17347    17348 1
   17964    17347    17373 1
   17965    17347    17374 1
   17966    17348    17349 1
   17967    17348    17375 1
   17968    17348    17376 1
   17969    17349    17350 1
   17970    17349    17377 1
   17971    17349    17378 1
   17972    17350    17351 1
   17973    17350    17379 1
   17974    17350    17380 1
   17975    17351    17381 1
   17976    17351    17382 1
   17977    17351    17383 1
   17978    17352    17353 1
   17979    17352    17384 1
   17980    17352    17385 1
   17981    17353    17354 1
   17982    17353    17386 1
   17983    17353    17387 1
   17984    17354    17355 1
   17985    17354    17388 1
   17986    17354    17389 1
   17987    17355    17356 1
   17988    17355    17390 1
   17989    17355    17391 1
   17990    17356    17357 1
   17991    17356    17392 1
   17992    17356    17393 1
   17993    17357    17358 1
   17994    17357    17394 1
   17995    17357    17395 1
   17996    17358    17359 1
   17997    17358    17396 1
   17998    17358    17397 1
   17999    17359    17398 1
   18000    17359    17399 1
   18001    17359    17400 1
   18002    17401    17402 1
   18003    17401    17408 1
   18004    17401    17424 1
   18005    17401    17485 1
   18006    17402    17403 1
   18007    17402    17406 1
   18008    17403    17404 1
   18009    17403    17407 1
   18010    17404    17405 1
   18011    17405    17406 1
   18012    17406    17412 1
   18013    17407    17408 1
   18014    17407    17411 1
   18015    17408    17409 1
   18016    17409    17410 1
   18017    17409    17413 1
   18018    17410    17411 1
   18019    17410    17416 1
   18020    17414    17415 1
   18021    17414    17422 1
   18022    17415    17416 1
   18023    17415    17423 1
   18024    17416    17417 1
   18025    17417    17418 1
   18026    17417    17421 1
   18027    17418    17419 1
   18028    17419    17420 1
   18029    17420    17421 1
   18030    17421    17422 1
   18031    17422    17550 1
   18032    17424    17425 1
   18033    17424    17444 1
   18034    17424    17445 1
   18035    17425    17426 1
   18036    17425    17436 1
   18037    17425    17446 1
   18038    17426    17427 1
   18039    17426    17447 1
   18040    17426    17448 1
   18041    17427    17428 1
   18042    17427    17449 1
   18043    17427    17450 1
   18044    17428    17429 1
   18045    17428    17451 1
   18046    17428    17452 1
   18047    17429    17430 1
   18048    17429    17453 1
   18049    17429    17454 1
   18050    17430    17431 1
   18051    17430    17455 1
   18052    17430    17456 1
   18053    17431    17432 1
   18054    17431    17457 1
   18055    17431    17458 1
   18056    17432    17433 1
   18057    17432    17459 1
   18058    17432    17460 1
   18059    17433    17434 1
   18060    17433    17461 1
   18061    17433    17462 1
   18062    17434    17435 1
   18063    17434    17463 1
   18064    17434    17464 1
   18065    17435    17465 1
   18066    17435    17466 1
   18067    17435    17467 1
   18068    17436    17437 1
   18069    17436    17468 1
   18070    17436    17469 1
   18071    17437    17438 1
   18072    17437    17470 1
   18073    17437    17471 1
   18074    17438    17439 1
   18075    17438    17472 1
   18076    17438    17473 1
   18077    17439    17440 1
   18078    17439    17474 1
   18079    17439    17475 1
   18080    17440    17441 1
   18081    17440    17476 1
   18082    17440    17477 1
   18083    17441    17442 1
   18084    17441    17478 1
   18085    17441    17479 1
   18086    17442    17443 1
   18087    17442    17480 1
   18088    17442    17481 1
   18089    17443    17482 1
   18090    17443    17483 1
   18091    17443    17484 1
   18092    17485    17486 1
   18093    17485    17505 1
   18094    17485    17506 1
   18095    17486    17487 1
   18096    17486    17497 1
   18097    17486    17507 1
   18098    17487    17488 1
   18099    17487    17508 1
   18100    17487    17509 1
   18101    17488    17489 1
   18102    17488    17510 1
   18103    17488    17511 1
   18104    17489    17490 1
   18105    17489    17512 1
   18106    17489    17513 1
   18107    17490    17491 1
   18108    17490    17514 1
   18109    17490    17515 1
   18110    17491    17492 1
   18111    17491    17516 1
   18112    17491    17517 1
   18113    17492    17493 1
   18114    17492    17518 1
   18115    17492    17519 1
   18116    17493    17494 1
   18117    17493    17520 1
   18118    17493    17521 1
   18119    17494    17495 1
   18120    17494    17522 1
   18121    17494    17523 1
   18122    17495    17496 1
   18123    17495    17524 1
   18124    17495    17525 1
   18125    17496    17526 1
   18126    17496    17527 1
   18127    17496    17528 1
   18128    17497    17498 1
   18129    17497    17529 1
   18130    17497    17530 1
   18131    17498    17499 1
   18132    17498    17531 1
   18133    17498    17532 1
   18134    17499    17500 1
   18135    17499    17533 1
   18136    17499    17534 1
   18137    17500    17501 1
   18138    17500    17535 1
   18139    17500    17536 1
   18140    17501    17502 1
   18141    17501    17537 1
   18142    17501    17538 1
   18143    17502    17503 1
   18144    17502    17539 1
   18145    17502    17540 1
   18146    17503    17504 1
   18147    17503    17541 1
   18148    17503    17542 1
   18149    17504    17543 1
   18150    17504    17544 1
   18151    17504    17545 1
   18152    17546    17547 1
   18153    17546    17553 1
   18154    17546    17569 1
   18155    17546    17630 1
   18156    17547    17548 1
   18157    17547    17551 1
   18158    17548    17549 1
   18159    17548    17552 1
   18160    17549    17550 1
   18161    17550    17551 1
   18162    17551    17557 1
   18163    17552    17553 1
   18164    17552    17556 1
   18165    17553    17554 1
   18166    17554    17555 1
   18167    17554    17558 1
   18168    17555    17556 1
   18169    17555    17561 1
   18170    17559    17560 1
   18171    17559    17567 1
   18172    17560    17561 1
   18173    17560    17568 1
   18174    17561    17562 1
   18175    17562    17563 1
   18176    17562    17566 1
   18177    17563    17564 1
   18178    17564    17565 1
   18179    17565    17566 1
   18180    17566    17567 1
   18181    17567    17695 1
   18182    17569    17570 1
   18183    17569    17589 1
   18184    17569    17590 1
   18185    17570    17571 1
   18186    17570    17581 1
   18187    17570    17591 1
   18188    17571    17572 1
   18189    17571    17592 1
   18190    17571    17593 1
   18191    17572    17573 1
   18192    17572    17594 1
   18193    17572    17595 1
   18194    17573    17574 1
   18195    17573    17596 1
   18196    17573    17597 1
   18197    17574    17575 1
   18198    17574    17598 1
   18199    17574    17599 1
   18200    17575    17576 1
   18201    17575    17600 1
   18202    17575    17601 1
   18203    17576    17577 1
   18204    17576    17602 1
   18205    17576    17603 1
   18206    17577    17578 1
   18207    17577    17604 1
   18208    17577    17605 1
   18209    17578    17579 1
   18210    17578    17606 1
   18211    17578    17607 1
   18212    17579    17580 1
   18213    17579    17608 1
   18214    17579    17609 1
   18215    17580    17610 1
   18216    17580    17611 1
   18217    17580    17612 1
   18218    17581    17582 1
   18219    17581    17613 1
   18220    17581    17614 1
   18221    17582    17583 1
   18222    17582    17615 1
   18223    17582    17616 1
   18224    17583    17584 1
   18225    17583    17617 1
   18226    17583    17618 1
   18227    17584    17585 1
   18228    17584    17619 1
   18229    17584    17620 1
   18230    17585    17586 1
   18231    17585    17621 1
   18232    17585    17622 1
   18233    17586    17587 1
   18234    17586    17623 1
   18235    17586    17624 1
   18236    17587    17588 1
   18237    17587    17625 1
   18238    17587    17626 1
   18239    17588    17627 1
   18240    17588    17628 1
   18241    17588    17629 1
   18242    17630    17631 1
   18243    17630    17650 1
   18244    17630    17651 1
   18245    17631    17632 1
   18246    17631    17642 1
   18247    17631    17652 1
   18248    17632    17633 1
   18249    17632    17653 1
   18250    17632    17654 1
   18251    17633    17634 1
   18252    17633    17655 1
   18253    17633    17656 1
   18254    17634    17635 1
   18255    17634    17657 1
   18256    17634    17658 1
   18257    17635    17636 1
   18258    17635    17659 1
   18259    17635    17660 1
   18260    17636    17637 1
   18261    17636    17661 1
   18262    17636    17662 1
   18263    17637    17638 1
   18264    17637    17663 1
   18265    17637    17664 1
   18266    17638    17639 1
   18267    17638    17665 1
   18268    17638    17666 1
   18269    17639    17640 1
   18270    17639    17667 1
   18271    17639    17668 1
   18272    17640    17641 1
   18273    17640    17669 1
   18274    17640    17670 1
   18275    17641    17671 1
   18276    17641    17672 1
   18277    17641    17673 1
   18278    17642    17643 1
   18279    17642    17674 1
   18280    17642    17675 1
   18281    17643    17644 1
   18282    17643    17676 1
   18283    17643    17677 1
   18284    17644    17645 1
   18285    17644    17678 1
   18286    17644    17679 1
   18287    17645    17646 1
   18288    17645    17680 1
   18289    17645    17681 1
   18290    17646    17647 1
   18291    17646    17682 1
   18292    17646    17683 1
   18293    17647    17648 1
   18294    17647    17684 1
   18295    17647    17685 1
   18296    17648    17649 1
   18297    17648    17686 1
   18298    17648    17687 1
   18299    17649    17688 1
   18300    17649    17689 1
   18301    17649    17690 1
   18302    17691    17692 1
   18303    17691    17698 1
   18304    17691    17714 1
   18305    17691    17775 1
   18306    17692    17693 1
   18307    17692    17696 1
   18308    17693    17694 1
   18309    17693    17697 1
   18310    17694    17695 1
   18311    17695    17696 1
   18312    17696    17702 1
   18313    17697    17698 1
   18314    17697    17701 1
   18315    17698    17699 1
   18316    17699    17700 1
   18317    17699    17703 1
   18318    17700    17701 1
   18319    17700    17706 1
   18320    17704    17705 1
   18321    17704    17712 1
   18322    17705    17706 1
   18323    17705    17713 1
   18324    17706    17707 1
   18325    17707    17708 1
   18326    17707    17711 1
   18327    17708    17709 1
   18328    17709    17710 1
   18329    17710    17711 1
   18330    17711    17712 1
   18331    17712    17840 1
   18332    17714    17715 1
   18333    17714    17734 1
   18334    17714    17735 1
   18335    17715    17716 1
   18336    17715    17726 1
   18337    17715    17736 1
   18338    17716    17717 1
   18339    17716    17737 1
   18340    17716    17738 1
   18341    17717    17718 1
   18342    17717    17739 1
   18343    17717    17740 1
   18344    17718    17719 1
   18345    17718    17741 1
   18346    17718    17742 1
   18347    17719    17720 1
   18348    17719    17743 1
   18349    17719    17744 1
   18350    17720    17721 1
   18351    17720    17745 1
   18352    17720    17746 1
   18353    17721    17722 1
   18354    17721    17747 1
   18355    17721    17748 1
   18356    17722    17723 1
   18357    17722    17749 1
   18358    17722    17750 1
   18359    17723    17724 1
   18360    17723    17751 1
   18361    17723    17752 1
   18362    17724    17725 1
   18363    17724    17753 1
   18364    17724    17754 1
   18365    17725    17755 1
   18366    17725    17756 1
   18367    17725    17757 1
   18368    17726    17727 1
   18369    17726    17758 1
   18370    17726    17759 1
   18371    17727    17728 1
   18372    17727    17760 1
   18373    17727    17761 1
   18374    17728    17729 1
   18375    17728    17762 1
   18376    17728    17763 1
   18377    17729    17730 1
   18378    17729    17764 1
   18379    17729    17765 1
   18380    17730    17731 1
   18381    17730    17766 1
   18382    17730    17767 1
   18383    17731    17732 1
   18384    17731    17768 1
   18385    17731    17769 1
   18386    17732    17733 1
   18387    17732    17770 1
   18388    17732    17771 1
   18389    17733    17772 1
   18390    17733    17773 1
   18391    17733    17774 1
   18392    17775    17776 1
   18393    17775    17795 1
   18394    17775    17796 1
   18395    17776    17777 1
   18396    17776    17787 1
   18397    17776    17797 1
   18398    17777    17778 1
   18399    17777    17798 1
   18400    17777    17799 1
   18401    17778    17779 1
   18402    17778    17800 1
   18403    17778    17801 1
   18404    17779    17780 1
   18405    17779    17802 1
   18406    17779    17803 1
   18407    17780    17781 1
   18408    17780    17804 1
   18409    17780    17805 1
   18410    17781    17782 1
   18411    17781    17806 1
   18412    17781    17807 1
   18413    17782    17783 1
   18414    17782    17808 1
   18415    17782    17809 1
   18416    17783    17784 1
   18417    17783    17810 1
   18418    17783    17811 1
   18419    17784    17785 1
   18420    17784    17812 1
   18421    17784    17813 1
   18422    17785    17786 1
   18423    17785    17814 1
   18424    17785    17815 1
   18425    17786    17816 1
   18426    17786    17817 1
   18427    17786    17818 1
   18428    17787    17788 1
   18429    17787    17819 1
   18430    17787    17820 1
   18431    17788    17789 1
   18432    17788    17821 1
   18433    17788    17822 1
   18434    17789    17790 1
   18435    17789    17823 1
   18436    17789    17824 1
   18437    17790    17791 1
   18438    17790    17825 1
   18439    17790    17826 1
   18440    17791    17792 1
   18441    17791    17827 1
   18442    17791    17828 1
   18443    17792    17793 1
   18444    17792    17829 1
   18445    17792    17830 1
   18446    17793    17794 1
   18447    17793    17831 1
   18448    17793    17832 1
   18449    17794    17833 1
   18450    17794    17834 1
   18451    17794    17835 1
   18452    17836    17837 1
   18453    17836    17843 1
   18454    17836    17859 1
   18455    17836    17920 1
   18456    17837    17838 1
   18457    17837    17841 1
   18458    17838    17839 1
   18459    17838    17842 1
   18460    17839    17840 1
   18461    17840    17841 1
   18462    17841    17847 1
   18463    17842    17843 1
   18464    17842    17846 1
   18465    17843    17844 1
   18466    17844    17845 1
   18467    17844    17848 1
   18468    17845    17846 1
   18469    17845    17851 1
   18470    17849    17850 1
   18471    17849    17857 1
   18472    17850    17851 1
   18473    17850    17858 1
   18474    17851    17852 1
   18475    17852    17853 1
   18476    17852    17856 1
   18477    17853    17854 1
   18478    17854    17855 1
   18479    17855    17856 1
   18480    17856    17857 1
   18481    17857    17985 1
   18482    17859    17860 1
   18483    17859    17879 1
   18484    17859    17880 1
   18485    17860    17861 1
   18486    17860    17871 1
   18487    17860    17881 1
   18488    17861    17862 1
   18489    17861    17882 1
   18490    17861    17883 1
   18491    17862    17863 1
   18492    17862    17884 1
   18493    17862    17885 1
   18494    17863    17864 1
   18495    17863    17886 1
   18496    17863    17887 1
   18497    17864    17865 1
   18498    17864    17888 1
   18499    17864    17889 1
   18500    17865    17866 1
   18501    17865    17890 1
   18502    17865    17891 1
   18503    17866    17867 1
   18504    17866    17892 1
   18505    17866    17893 1
   18506    17867    17868 1
   18507    17867    17894 1
   18508    17867    17895 1
   18509    17868    17869 1
   18510    17868    17896 1
   18511    17868    17897 1
   18512    17869    17870 1
   18513    17869    17898 1
   18514    17869    17899 1
   18515    17870    17900 1
   18516    17870    17901 1
   18517    17870    17902 1
   18518    17871    17872 1
   18519    17871    17903 1
   18520    17871    17904 1
   18521    17872    17873 1
   18522    17872    17905 1
   18523    17872    17906 1
   18524    17873    17874 1
   18525    17873    17907 1
   18526    17873    17908 1
   18527    17874    17875 1
   18528    17874    17909 1
   18529    17874    17910 1
   18530    17875    17876 1
   18531    17875    17911 1
   18532    17875    17912 1
   18533    17876    17877 1
   18534    17876    17913 1
   18535    17876    17914 1
   18536    17877    17878 1
   18537    17877    17915 1
   18538    17877    17916 1
   18539    17878    17917 1
   18540    17878    17918 1
   18541    17878    17919 1
   18542    17920    17921 1
   18543    17920    17940 1
   18544    17920    17941 1
   18545    17921    17922 1
   18546    17921    17932 1
   18547    17921    17942 1
   18548    17922    17923 1
   18549    17922    17943 1
   18550    17922    17944 1
   18551    17923    17924 1
   18552    17923    17945 1
   18553    17923    17946 1
   18554    17924    17925 1
   18555    17924    17947 1
   18556    17924    17948 1
   18557    17925    17926 1
   18558    17925    17949 1
   18559    17925    17950 1
   18560    17926    17927 1
   18561    17926    17951 1
   18562    17926    17952 1
   18563    17927    17928 1
   18564    17927    17953 1
   18565    17927    17954 1
   18566    17928    17929 1
   18567    17928    17955 1
   18568    17928    17956 1
   18569    17929    17930 1
   18570    17929    17957 1
   18571    17929    17958 1
   18572    17930    17931 1
   18573    17930    17959 1
   18574    17930    17960 1
   18575    17931    17961 1
   18576    17931    17962 1
   18577    17931    17963 1
   18578    17932    17933 1
   18579    17932    17964 1
   18580    17932    17965 1
   18581    17933    17934 1
   18582    17933    17966 1
   18583    17933    17967 1
   18584    17934    17935 1
   18585    17934    17968 1
   18586    17934    17969 1
   18587    17935    17936 1
   18588    17935    17970 1
   18589    17935    17971 1
   18590    17936    17937 1
   18591    17936    17972 1
   18592    17936    17973 1
   18593    17937    17938 1
   18594    17937    17974 1
   18595    17937    17975 1
   18596    17938    17939 1
   18597    17938    17976 1
   18598    17938    17977 1
   18599    17939    17978 1
   18600    17939    17979 1
   18601    17939    17980 1
   18602    17981    17982 1
   18603    17981    17988 1
   18604    17981    18004 1
   18605    17981    18065 1
   18606    17982    17983 1
   18607    17982    17986 1
   18608    17983    17984 1
   18609    17983    17987 1
   18610    17984    17985 1
   18611    17985    17986 1
   18612    17986    17992 1
   18613    17987    17988 1
   18614    17987    17991 1
   18615    17988    17989 1
   18616    17989    17990 1
   18617    17989    17993 1
   18618    17990    17991 1
   18619    17990    17996 1
   18620    17994    17995 1
   18621    17994    18002 1
   18622    17995    17996 1
   18623    17995    18003 1
   18624    17996    17997 1
   18625    17997    17998 1
   18626    17997    18001 1
   18627    17998    17999 1
   18628    17999    18000 1
   18629    18000    18001 1
   18630    18001    18002 1
   18631    18002    18130 1
   18632    18004    18005 1
   18633    18004    18024 1
   18634    18004    18025 1
   18635    18005    18006 1
   18636    18005    18016 1
   18637    18005    18026 1
   18638    18006    18007 1
   18639    18006    18027 1
   18640    18006    18028 1
   18641    18007    18008 1
   18642    18007    18029 1
   18643    18007    18030 1
   18644    18008    18009 1
   18645    18008    18031 1
   18646    18008    18032 1
   18647    18009    18010 1
   18648    18009    18033 1
   18649    18009    18034 1
   18650    18010    18011 1
   18651    18010    18035 1
   18652    18010    18036 1
   18653    18011    18012 1
   18654    18011    18037 1
   18655    18011    18038 1
   18656    18012    18013 1
   18657    18012    18039 1
   18658    18012    18040 1
   18659    18013    18014 1
   18660    18013    18041 1
   18661    18013    18042 1
   18662    18014    18015 1
   18663    18014    18043 1
   18664    18014    18044 1
   18665    18015    18045 1
   18666    18015    18046 1
   18667    18015    18047 1
   18668    18016    18017 1
   18669    18016    18048 1
   18670    18016    18049 1
   18671    18017    18018 1
   18672    18017    18050 1
   18673    18017    18051 1
   18674    18018    18019 1
   18675    18018    18052 1
   18676    18018    18053 1
   18677    18019    18020 1
   18678    18019    18054 1
   18679    18019    18055 1
   18680    18020    18021 1
   18681    18020    18056 1
   18682    18020    18057 1
   18683    18021    18022 1
   18684    18021    18058 1
   18685    18021    18059 1
   18686    18022    18023 1
   18687    18022    18060 1
   18688    18022    18061 1
   18689    18023    18062 1
   18690    18023    18063 1
   18691    18023    18064 1
   18692    18065    18066 1
   18693    18065    18085 1
   18694    18065    18086 1
   18695    18066    18067 1
   18696    18066    18077 1
   18697    18066    18087 1
   18698    18067    18068 1
   18699    18067    18088 1
   18700    18067    18089 1
   18701    18068    18069 1
   18702    18068    18090 1
   18703    18068    18091 1
   18704    18069    18070 1
   18705    18069    18092 1
   18706    18069    18093 1
   18707    18070    18071 1
   18708    18070    18094 1
   18709    18070    18095 1
   18710    18071    18072 1
   18711    18071    18096 1
   18712    18071    18097 1
   18713    18072    18073 1
   18714    18072    18098 1
   18715    18072    18099 1
   18716    18073    18074 1
   18717    18073    18100 1
   18718    18073    18101 1
   18719    18074    18075 1
   18720    18074    18102 1
   18721    18074    18103 1
   18722    18075    18076 1
   18723    18075    18104 1
   18724    18075    18105 1
   18725    18076    18106 1
   18726    18076    18107 1
   18727    18076    18108 1
   18728    18077    18078 1
   18729    18077    18109 1
   18730    18077    18110 1
   18731    18078    18079 1
   18732    18078    18111 1
   18733    18078    18112 1
   18734    18079    18080 1
   18735    18079    18113 1
   18736    18079    18114 1
   18737    18080    18081 1
   18738    18080    18115 1
   18739    18080    18116 1
   18740    18081    18082 1
   18741    18081    18117 1
   18742    18081    18118 1
   18743    18082    18083 1
   18744    18082    18119 1
   18745    18082    18120 1
   18746    18083    18084 1
   18747    18083    18121 1
   18748    18083    18122 1
   18749    18084    18123 1
   18750    18084    18124 1
   18751    18084    18125 1
   18752    18126    18127 1
   18753    18126    18133 1
   18754    18126    18149 1
   18755    18126    18210 1
   18756    18127    18128 1
   18757    18127    18131 1
   18758    18128    18129 1
   18759    18128    18132 1
   18760    18129    18130 1
   18761    18130    18131 1
   18762    18131    18137 1
   18763    18132    18133 1
   18764    18132    18136 1
   18765    18133    18134 1
   18766    18134    18135 1
   18767    18134    18138 1
   18768    18135    18136 1
   18769    18135    18141 1
   18770    18139    18140 1
   18771    18139    18147 1
   18772    18140    18141 1
   18773    18140    18148 1
   18774    18141    18142 1
   18775    18142    18143 1
   18776    18142    18146 1
   18777    18143    18144 1
   18778    18144    18145 1
   18779    18145    18146 1
   18780    18146    18147 1
   18781    18147    18275 1
   18782    18149    18150 1
   18783    18149    18169 1
   18784    18149    18170 1
   18785    18150    18151 1
   18786    18150    18161 1
   18787    18150    18171 1
   18788    18151    18152 1
   18789    18151    18172 1
   18790    18151    18173 1
   18791    18152    18153 1
   18792    18152    18174 1
   18793    18152    18175 1
   18794    18153    18154 1
   18795    18153    18176 1
   18796    18153    18177 1
   18797    18154    18155 1
   18798    18154    18178 1
   18799    18154    18179 1
   18800    18155    18156 1
   18801    18155    18180 1
   18802    18155    18181 1
   18803    18156    18157 1
   18804    18156    18182 1
   18805    18156    18183 1
   18806    18157    18158 1
   18807    18157    18184 1
   18808    18157    18185 1
   18809    18158    18159 1
   18810    18158    18186 1
   18811    18158    18187 1
   18812    18159    18160 1
   18813    18159    18188 1
   18814    18159    18189 1
   18815    18160    18190 1
   18816    18160    18191 1
   18817    18160    18192 1
   18818    18161    18162 1
   18819    18161    18193 1
   18820    18161    18194 1
   18821    18162    18163 1
   18822    18162    18195 1
   18823    18162    18196 1
   18824    18163    18164 1
   18825    18163    18197 1
   18826    18163    18198 1
   18827    18164    18165 1
   18828    18164    18199 1
   18829    18164    18200 1
   18830    18165    18166 1
   18831    18165    18201 1
   18832    18165    18202 1
   18833    18166    18167 1
   18834    18166    18203 1
   18835    18166    18204 1
   18836    18167    18168 1
   18837    18167    18205 1
   18838    18167    18206 1
   18839    18168    18207 1
   18840    18168    18208 1
   18841    18168    18209 1
   18842    18210    18211 1
   18843    18210    18230 1
   18844    18210    18231 1
   18845    18211    18212 1
   18846    18211    18222 1
   18847    18211    18232 1
   18848    18212    18213 1
   18849    18212    18233 1
   18850    18212    18234 1
   18851    18213    18214 1
   18852    18213    18235 1
   18853    18213    18236 1
   18854    18214    18215 1
   18855    18214    18237 1
   18856    18214    18238 1
   18857    18215    18216 1
   18858    18215    18239 1
   18859    18215    18240 1
   18860    18216    18217 1
   18861    18216    18241 1
   18862    18216    18242 1
   18863    18217    18218 1
   18864    18217    18243 1
   18865    18217    18244 1
   18866    18218    18219 1
   18867    18218    18245 1
   18868    18218    18246 1
   18869    18219    18220 1
   18870    18219    18247 1
   18871    18219    18248 1
   18872    18220    18221 1
   18873    18220    18249 1
   18874    18220    18250 1
   18875    18221    18251 1
   18876    18221    18252 1
   18877    18221    18253 1
   18878    18222    18223 1
   18879    18222    18254 1
   18880    18222    18255 1
   18881    18223    18224 1
   18882    18223    18256 1
   18883    18223    18257 1
   18884    18224    18225 1
   18885    18224    18258 1
   18886    18224    18259 1
   18887    18225    18226 1
   18888    18225    18260 1
   18889    18225    18261 1
   18890    18226    18227 1
   18891    18226    18262 1
   18892    18226    18263 1
   18893    18227    18228 1
   18894    18227    18264 1
   18895    18227    18265 1
   18896    18228    18229 1
   18897    18228    18266 1
   18898    18228    18267 1
   18899    18229    18268 1
   18900    18229    18269 1
   18901    18229    18270 1
   18902    18271    18272 1
   18903    18271    18278 1
   18904    18271    18294 1
   18905    18271    18355 1
   18906    18272    18273 1
   18907    18272    18276 1
   18908    18273    18274 1
   18909    18273    18277 1
   18910    18274    18275 1
   18911    18275    18276 1
   18912    18276    18282 1
   18913    18277    18278 1
   18914    18277    18281 1
   18915    18278    18279 1
   18916    18279    18280 1
   18917    18279    18283 1
   18918    18280    18281 1
   18919    18280    18286 1
   18920    18284    18285 1
   18921    18284    18292 1
   18922    18285    18286 1
   18923    18285    18293 1
   18924    18286    18287 1
   18925    18287    18288 1
   18926    18287    18291 1
   18927    18288    18289 1
   18928    18289    18290 1
   18929    18290    18291 1
   18930    18291    18292 1
   18931    18292    18420 1
   18932    18294    18295 1
   18933    18294    18314 1
   18934    18294    18315 1
   18935    18295    18296 1
   18936    18295    18306 1
   18937    18295    18316 1
   18938    18296    18297 1
   18939    18296    18317 1
   18940    18296    18318 1
   18941    18297    18298 1
   18942    18297    18319 1
   18943    18297    18320 1
   18944    18298    18299 1
   18945    18298    18321 1
   18946    18298    18322 1
   18947    18299    18300 1
   18948    18299    18323 1
   18949    18299    18324 1
   18950    18300    18301 1
   18951    18300    18325 1
   18952    18300    18326 1
   18953    18301    18302 1
   18954    18301    18327 1
   18955    18301    18328 1
   18956    18302    18303 1
   18957    18302    18329 1
   18958    18302    18330 1
   18959    18303    18304 1
   18960    18303    18331 1
   18961    18303    18332 1
   18962    18304    18305 1
   18963    18304    18333 1
   18964    18304    18334 1
   18965    18305    18335 1
   18966    18305    18336 1
   18967    18305    18337 1
   18968    18306    18307 1
   18969    18306    18338 1
   18970    18306    18339 1
   18971    18307    18308 1
   18972    18307    18340 1
   18973    18307    18341 1
   18974    18308    18309 1
   18975    18308    18342 1
   18976    18308    18343 1
   18977    18309    18310 1
   18978    18309    18344 1
   18979    18309    18345 1
   18980    18310    18311 1
   18981    18310    18346 1
   18982    18310    18347 1
   18983    18311    18312 1
   18984    18311    18348 1
   18985    18311    18349 1
   18986    18312    18313 1
   18987    18312    18350 1
   18988    18312    18351 1
   18989    18313    18352 1
   18990    18313    18353 1
   18991    18313    18354 1
   18992    18355    18356 1
   18993    18355    18375 1
   18994    18355    18376 1
   18995    18356    18357 1
   18996    18356    18367 1
   18997    18356    18377 1
   18998    18357    18358 1
   18999    18357    18378 1
   19000    18357    18379 1
   19001    18358    18359 1
   19002    18358    18380 1
   19003    18358    18381 1
   19004    18359    18360 1
   19005    18359    18382 1
   19006    18359    18383 1
   19007    18360    18361 1
   19008    18360    18384 1
   19009    18360    18385 1
   19010    18361    18362 1
   19011    18361    18386 1
   19012    18361    18387 1
   19013    18362    18363 1
   19014    18362    18388 1
   19015    18362    18389 1
   19016    18363    18364 1
   19017    18363    18390 1
   19018    18363    18391 1
   19019    18364    18365 1
   19020    18364    18392 1
   19021    18364    18393 1
   19022    18365    18366 1
   19023    18365    18394 1
   19024    18365    18395 1
   19025    18366    18396 1
   19026    18366    18397 1
   19027    18366    18398 1
   19028    18367    18368 1
   19029    18367    18399 1
   19030    18367    18400 1
   19031    18368    18369 1
   19032    18368    18401 1
   19033    18368    18402 1
   19034    18369    18370 1
   19035    18369    18403 1
   19036    18369    18404 1
   19037    18370    18371 1
   19038    18370    18405 1
   19039    18370    18406 1
   19040    18371    18372 1
   19041    18371    18407 1
   19042    18371    18408 1
   19043    18372    18373 1
   19044    18372    18409 1
   19045    18372    18410 1
   19046    18373    18374 1
   19047    18373    18411 1
   19048    18373    18412 1
   19049    18374    18413 1
   19050    18374    18414 1
   19051    18374    18415 1
   19052    18416    18417 1
   19053    18416    18423 1
   19054    18416    18439 1
   19055    18416    18500 1
   19056    18417    18418 1
   19057    18417    18421 1
   19058    18418    18419 1
   19059    18418    18422 1
   19060    18419    18420 1
   19061    18420    18421 1
   19062    18421    18427 1
   19063    18422    18423 1
   19064    18422    18426 1
   19065    18423    18424 1
   19066    18424    18425 1
   19067    18424    18428 1
   19068    18425    18426 1
   19069    18425    18431 1
   19070    18429    18430 1
   19071    18429    18437 1
   19072    18430    18431 1
   19073    18430    18438 1
   19074    18431    18432 1
   19075    18432    18433 1
   19076    18432    18436 1
   19077    18433    18434 1
   19078    18434    18435 1
   19079    18435    18436 1
   19080    18436    18437 1
   19081    18437    18565 1
   19082    18439    18440 1
   19083    18439    18459 1
   19084    18439    18460 1
   19085    18440    18441 1
   19086    18440    18451 1
   19087    18440    18461 1
   19088    18441    18442 1
   19089    18441    18462 1
   19090    18441    18463 1
   19091    18442    18443 1
   19092    18442    18464 1
   19093    18442    18465 1
   19094    18443    18444 1
   19095    18443    18466 1
   19096    18443    18467 1
   19097    18444    18445 1
   19098    18444    18468 1
   19099    18444    18469 1
   19100    18445    18446 1
   19101    18445    18470 1
   19102    18445    18471 1
   19103    18446    18447 1
   19104    18446    18472 1
   19105    18446    18473 1
   19106    18447    18448 1
   19107    18447    18474 1
   19108    18447    18475 1
   19109    18448    18449 1
   19110    18448    18476 1
   19111    18448    18477 1
   19112    18449    18450 1
   19113    18449    18478 1
   19114    18449    18479 1
   19115    18450    18480 1
   19116    18450    18481 1
   19117    18450    18482 1
   19118    18451    18452 1
   19119    18451    18483 1
   19120    18451    18484 1
   19121    18452    18453 1
   19122    18452    18485 1
   19123    18452    18486 1
   19124    18453    18454 1
   19125    18453    18487 1
   19126    18453    18488 1
   19127    18454    18455 1
   19128    18454    18489 1
   19129    18454    18490 1
   19130    18455    18456 1
   19131    18455    18491 1
   19132    18455    18492 1
   19133    18456    18457 1
   19134    18456    18493 1
   19135    18456    18494 1
   19136    18457    18458 1
   19137    18457    18495 1
   19138    18457    18496 1
   19139    18458    18497 1
   19140    18458    18498 1
   19141    18458    18499 1
   19142    18500    18501 1
   19143    18500    18520 1
   19144    18500    18521 1
   19145    18501    18502 1
   19146    18501    18512 1
   19147    18501    18522 1
   19148    18502    18503 1
   19149    18502    18523 1
   19150    18502    18524 1
   19151    18503    18504 1
   19152    18503    18525 1
   19153    18503    18526 1
   19154    18504    18505 1
   19155    18504    18527 1
   19156    18504    18528 1
   19157    18505    18506 1
   19158    18505    18529 1
   19159    18505    18530 1
   19160    18506    18507 1
   19161    18506    18531 1
   19162    18506    18532 1
   19163    18507    18508 1
   19164    18507    18533 1
   19165    18507    18534 1
   19166    18508    18509 1
   19167    18508    18535 1
   19168    18508    18536 1
   19169    18509    18510 1
   19170    18509    18537 1
   19171    18509    18538 1
   19172    18510    18511 1
   19173    18510    18539 1
   19174    18510    18540 1
   19175    18511    18541 1
   19176    18511    18542 1
   19177    18511    18543 1
   19178    18512    18513 1
   19179    18512    18544 1
   19180    18512    18545 1
   19181    18513    18514 1
   19182    18513    18546 1
   19183    18513    18547 1
   19184    18514    18515 1
   19185    18514    18548 1
   19186    18514    18549 1
   19187    18515    18516 1
   19188    18515    18550 1
   19189    18515    18551 1
   19190    18516    18517 1
   19191    18516    18552 1
   19192    18516    18553 1
   19193    18517    18518 1
   19194    18517    18554 1
   19195    18517    18555 1
   19196    18518    18519 1
   19197    18518    18556 1
   19198    18518    18557 1
   19199    18519    18558 1
   19200    18519    18559 1
   19201    18519    18560 1
   19202    18561    18562 1
   19203    18561    18568 1
   19204    18561    18584 1
   19205    18561    18645 1
   19206    18562    18563 1
   19207    18562    18566 1
   19208    18563    18564 1
   19209    18563    18567 1
   19210    18564    18565 1
   19211    18565    18566 1
   19212    18566    18572 1
   19213    18567    18568 1
   19214    18567    18571 1
   19215    18568    18569 1
   19216    18569    18570 1
   19217    18569    18573 1
   19218    18570    18571 1
   19219    18570    18576 1
   19220    18574    18575 1
   19221    18574    18582 1
   19222    18575    18576 1
   19223    18575    18583 1
   19224    18576    18577 1
   19225    18577    18578 1
   19226    18577    18581 1
   19227    18578    18579 1
   19228    18579    18580 1
   19229    18580    18581 1
   19230    18581    18582 1
   19231    18582    18710 1
   19232    18584    18585 1
   19233    18584    18604 1
   19234    18584    18605 1
   19235    18585    18586 1
   19236    18585    18596 1
   19237    18585    18606 1
   19238    18586    18587 1
   19239    18586    18607 1
   19240    18586    18608 1
   19241    18587    18588 1
   19242    18587    18609 1
   19243    18587    18610 1
   19244    18588    18589 1
   19245    18588    18611 1
   19246    18588    18612 1
   19247    18589    18590 1
   19248    18589    18613 1
   19249    18589    18614 1
   19250    18590    18591 1
   19251    18590    18615 1
   19252    18590    18616 1
   19253    18591    18592 1
   19254    18591    18617 1
   19255    18591    18618 1
   19256    18592    18593 1
   19257    18592    18619 1
   19258    18592    18620 1
   19259    18593    18594 1
   19260    18593    18621 1
   19261    18593    18622 1
   19262    18594    18595 1
   19263    18594    18623 1
   19264    18594    18624 1
   19265    18595    18625 1
   19266    18595    18626 1
   19267    18595    18627 1
   19268    18596    18597 1
   19269    18596    18628 1
   19270    18596    18629 1
   19271    18597    18598 1
   19272    18597    18630 1
   19273    18597    18631 1
   19274    18598    18599 1
   19275    18598    18632 1
   19276    18598    18633 1
   19277    18599    18600 1
   19278    18599    18634 1
   19279    18599    18635 1
   19280    18600    18601 1
   19281    18600    18636 1
   19282    18600    18637 1
   19283    18601    18602 1
   19284    18601    18638 1
   19285    18601    18639 1
   19286    18602    18603 1
   19287    18602    18640 1
   19288    18602    18641 1
   19289    18603    18642 1
   19290    18603    18643 1
   19291    18603    18644 1
   19292    18645    18646 1
   19293    18645    18665 1
   19294    18645    18666 1
   19295    18646    18647 1
   19296    18646    18657 1
   19297    18646    18667 1
   19298    18647    18648 1
   19299    18647    18668 1
   19300    18647    18669 1
   19301    18648    18649 1
   19302    18648    18670 1
   19303    18648    18671 1
   19304    18649    18650 1
   19305    18649    18672 1
   19306    18649    18673 1
   19307    18650    18651 1
   19308    18650    18674 1
   19309    18650    18675 1
   19310    18651    18652 1
   19311    18651    18676 1
   19312    18651    18677 1
   19313    18652    18653 1
   19314    18652    18678 1
   19315    18652    18679 1
   19316    18653    18654 1
   19317    18653    18680 1
   19318    18653    18681 1
   19319    18654    18655 1
   19320    18654    18682 1
   19321    18654    18683 1
   19322    18655    18656 1
   19323    18655    18684 1
   19324    18655    18685 1
   19325    18656    18686 1
   19326    18656    18687 1
   19327    18656    18688 1
   19328    18657    18658 1
   19329    18657    18689 1
   19330    18657    18690 1
   19331    18658    18659 1
   19332    18658    18691 1
   19333    18658    18692 1
   19334    18659    18660 1
   19335    18659    18693 1
   19336    18659    18694 1
   19337    18660    18661 1
   19338    18660    18695 1
   19339    18660    18696 1
   19340    18661    18662 1
   19341    18661    18697 1
   19342    18661    18698 1
   19343    18662    18663 1
   19344    18662    18699 1
   19345    18662    18700 1
   19346    18663    18664 1
   19347    18663    18701 1
   19348    18663    18702 1
   19349    18664    18703 1
   19350    18664    18704 1
   19351    18664    18705 1
   19352    18706    18707 1
   19353    18706    18713 1
   19354    18706    18729 1
   19355    18706    18790 1
   19356    18707    18708 1
   19357    18707    18711 1
   19358    18708    18709 1
   19359    18708    18712 1
   19360    18709    18710 1
   19361    18710    18711 1
   19362    18711    18717 1
   19363    18712    18713 1
   19364    18712    18716 1
   19365    18713    18714 1
   19366    18714    18715 1
   19367    18714    18718 1
   19368    18715    18716 1
   19369    18715    18721 1
   19370    18719    18720 1
   19371    18719    18727 1
   19372    18720    18721 1
   19373    18720    18728 1
   19374    18721    18722 1
   19375    18722    18723 1
   19376    18722    18726 1
   19377    18723    18724 1
   19378    18724    18725 1
   19379    18725    18726 1
   19380    18726    18727 1
   19381    18727    18855 1
   19382    18729    18730 1
   19383    18729    18749 1
   19384    18729    18750 1
   19385    18730    18731 1
   19386    18730    18741 1
   19387    18730    18751 1
   19388    18731    18732 1
   19389    18731    18752 1
   19390    18731    18753 1
   19391    18732    18733 1
   19392    18732    18754 1
   19393    18732    18755 1
   19394    18733    18734 1
   19395    18733    18756 1
   19396    18733    18757 1
   19397    18734    18735 1
   19398    18734    18758 1
   19399    18734    18759 1
   19400    18735    18736 1
   19401    18735    18760 1
   19402    18735    18761 1
   19403    18736    18737 1
   19404    18736    18762 1
   19405    18736    18763 1
   19406    18737    18738 1
   19407    18737    18764 1
   19408    18737    18765 1
   19409    18738    18739 1
   19410    18738    18766 1
   19411    18738    18767 1
   19412    18739    18740 1
   19413    18739    18768 1
   19414    18739    18769 1
   19415    18740    18770 1
   19416    18740    18771 1
   19417    18740    18772 1
   19418    18741    18742 1
   19419    18741    18773 1
   19420    18741    18774 1
   19421    18742    18743 1
   19422    18742    18775 1
   19423    18742    18776 1
   19424    18743    18744 1
   19425    18743    18777 1
   19426    18743    18778 1
   19427    18744    18745 1
   19428    18744    18779 1
   19429    18744    18780 1
   19430    18745    18746 1
   19431    18745    18781 1
   19432    18745    18782 1
   19433    18746    18747 1
   19434    18746    18783 1
   19435    18746    18784 1
   19436    18747    18748 1
   19437    18747    18785 1
   19438    18747    18786 1
   19439    18748    18787 1
   19440    18748    18788 1
   19441    18748    18789 1
   19442    18790    18791 1
   19443    18790    18810 1
   19444    18790    18811 1
   19445    18791    18792 1
   19446    18791    18802 1
   19447    18791    18812 1
   19448    18792    18793 1
   19449    18792    18813 1
   19450    18792    18814 1
   19451    18793    18794 1
   19452    18793    18815 1
   19453    18793    18816 1
   19454    18794    18795 1
   19455    18794    18817 1
   19456    18794    18818 1
   19457    18795    18796 1
   19458    18795    18819 1
   19459    18795    18820 1
   19460    18796    18797 1
   19461    18796    18821 1
   19462    18796    18822 1
   19463    18797    18798 1
   19464    18797    18823 1
   19465    18797    18824 1
   19466    18798    18799 1
   19467    18798    18825 1
   19468    18798    18826 1
   19469    18799    18800 1
   19470    18799    18827 1
   19471    18799    18828 1
   19472    18800    18801 1
   19473    18800    18829 1
   19474    18800    18830 1
   19475    18801    18831 1
   19476    18801    18832 1
   19477    18801    18833 1
   19478    18802    18803 1
   19479    18802    18834 1
   19480    18802    18835 1
   19481    18803    18804 1
   19482    18803    18836 1
   19483    18803    18837 1
   19484    18804    18805 1
   19485    18804    18838 1
   19486    18804    18839 1
   19487    18805    18806 1
   19488    18805    18840 1
   19489    18805    18841 1
   19490    18806    18807 1
   19491    18806    18842 1
   19492    18806    18843 1
   19493    18807    18808 1
   19494    18807    18844 1
   19495    18807    18845 1
   19496    18808    18809 1
   19497    18808    18846 1
   19498    18808    18847 1
   19499    18809    18848 1
   19500    18809    18849 1
   19501    18809    18850 1
   19502    18851    18852 1
   19503    18851    18858 1
   19504    18851    18874 1
   19505    18851    18935 1
   19506    18852    18853 1
   19507    18852    18856 1
   19508    18853    18854 1
   19509    18853    18857 1
   19510    18854    18855 1
   19511    18855    18856 1
   19512    18856    18862 1
   19513    18857    18858 1
   19514    18857    18861 1
   19515    18858    18859 1
   19516    18859    18860 1
   19517    18859    18863 1
   19518    18860    18861 1
   19519    18860    18866 1
   19520    18864    18865 1
   19521    18864    18872 1
   19522    18865    18866 1
   19523    18865    18873 1
   19524    18866    18867 1
   19525    18867    18868 1
   19526    18867    18871 1
   19527    18868    18869 1
   19528    18869    18870 1
   19529    18870    18871 1
   19530    18871    18872 1
   19531    18872    19000 1
   19532    18874    18875 1
   19533    18874    18894 1
   19534    18874    18895 1
   19535    18875    18876 1
   19536    18875    18886 1
   19537    18875    18896 1
   19538    18876    18877 1
   19539    18876    18897 1
   19540    18876    18898 1
   19541    18877    18878 1
   19542    18877    18899 1
   19543    18877    18900 1
   19544    18878    18879 1
   19545    18878    18901 1
   19546    18878    18902 1
   19547    18879    18880 1
   19548    18879    18903 1
   19549    18879    18904 1
   19550    18880    18881 1
   19551    18880    18905 1
   19552    18880    18906 1
   19553    18881    18882 1
   19554    18881    18907 1
   19555    18881    18908 1
   19556    18882    18883 1
   19557    18882    18909 1
   19558    18882    18910 1
   19559    18883    18884 1
   19560    18883    18911 1
   19561    18883    18912 1
   19562    18884    18885 1
   19563    18884    18913 1
   19564    18884    18914 1
   19565    18885    18915 1
   19566    18885    18916 1
   19567    18885    18917 1
   19568    18886    18887 1
   19569    18886    18918 1
   19570    18886    18919 1
   19571    18887    18888 1
   19572    18887    18920 1
   19573    18887    18921 1
   19574    18888    18889 1
   19575    18888    18922 1
   19576    18888    18923 1
   19577    18889    18890 1
   19578    18889    18924 1
   19579    18889    18925 1
   19580    18890    18891 1
   19581    18890    18926 1
   19582    18890    18927 1
   19583    18891    18892 1
   19584    18891    18928 1
   19585    18891    18929 1
   19586    18892    18893 1
   19587    18892    18930 1
   19588    18892    18931 1
   19589    18893    18932 1
   19590    18893    18933 1
   19591    18893    18934 1
   19592    18935    18936 1
   19593    18935    18955 1
   19594    18935    18956 1
   19595    18936    18937 1
   19596    18936    18947 1
   19597    18936    18957 1
   19598    18937    18938 1
   19599    18937    18958 1
   19600    18937    18959 1
   19601    18938    18939 1
   19602    18938    18960 1
   19603    18938    18961 1
   19604    18939    18940 1
   19605    18939    18962 1
   19606    18939    18963 1
   19607    18940    18941 1
   19608    18940    18964 1
   19609    18940    18965 1
   19610    18941    18942 1
   19611    18941    18966 1
   19612    18941    18967 1
   19613    18942    18943 1
   19614    18942    18968 1
   19615    18942    18969 1
   19616    18943    18944 1
   19617    18943    18970 1
   19618    18943    18971 1
   19619    18944    18945 1
   19620    18944    18972 1
   19621    18944    18973 1
   19622    18945    18946 1
   19623    18945    18974 1
   19624    18945    18975 1
   19625    18946    18976 1
   19626    18946    18977 1
   19627    18946    18978 1
   19628    18947    18948 1
   19629    18947    18979 1
   19630    18947    18980 1
   19631    18948    18949 1
   19632    18948    18981 1
   19633    18948    18982 1
   19634    18949    18950 1
   19635    18949    18983 1
   19636    18949    18984 1
   19637    18950    18951 1
   19638    18950    18985 1
   19639    18950    18986 1
   19640    18951    18952 1
   19641    18951    18987 1
   19642    18951    18988 1
   19643    18952    18953 1
   19644    18952    18989 1
   19645    18952    18990 1
   19646    18953    18954 1
   19647    18953    18991 1
   19648    18953    18992 1
   19649    18954    18993 1
   19650    18954    18994 1
   19651    18954    18995 1
   19652    18996    18997 1
   19653    18996    19003 1
   19654    18996    19019 1
   19655    18996    19080 1
   19656    18997    18998 1
   19657    18997    19001 1
   19658    18998    18999 1
   19659    18998    19002 1
   19660    18999    19000 1
   19661    19000    19001 1
   19662    19001    19007 1
   19663    19002    19003 1
   19664    19002    19006 1
   19665    19003    19004 1
   19666    19004    19005 1
   19667    19004    19008 1
   19668    19005    19006 1
   19669    19005    19011 1
   19670    19009    19010 1
   19671    19009    19017 1
   19672    19010    19011 1
   19673    19010    19018 1
   19674    19011    19012 1
   19675    19012    19013 1
   19676    19012    19016 1
   19677    19013    19014 1
   19678    19014    19015 1
   19679    19015    19016 1
   19680    19016    19017 1
   19681    19017    19145 1
   19682    19019    19020 1
   19683    19019    19039 1
   19684    19019    19040 1
   19685    19020    19021 1
   19686    19020    19031 1
   19687    19020    19041 1
   19688    19021    19022 1
   19689    19021    19042 1
   19690    19021    19043 1
   19691    19022    19023 1
   19692    19022    19044 1
   19693    19022    19045 1
   19694    19023    19024 1
   19695    19023    19046 1
   19696    19023    19047 1
   19697    19024    19025 1
   19698    19024    19048 1
   19699    19024    19049 1
   19700    19025    19026 1
   19701    19025    19050 1
   19702    19025    19051 1
   19703    19026    19027 1
   19704    19026    19052 1
   19705    19026    19053 1
   19706    19027    19028 1
   19707    19027    19054 1
   19708    19027    19055 1
   19709    19028    19029 1
   19710    19028    19056 1
   19711    19028    19057 1
   19712    19029    19030 1
   19713    19029    19058 1
   19714    19029    19059 1
   19715    19030    19060 1
   19716    19030    19061 1
   19717    19030    19062 1
   19718    19031    19032 1
   19719    19031    19063 1
   19720    19031    19064 1
   19721    19032    19033 1
   19722    19032    19065 1
   19723    19032    19066 1
   19724    19033    19034 1
   19725    19033    19067 1
   19726    19033    19068 1
   19727    19034    19035 1
   19728    19034    19069 1
   19729    19034    19070 1
   19730    19035    19036 1
   19731    19035    19071 1
   19732    19035    19072 1
   19733    19036    19037 1
   19734    19036    19073 1
   19735    19036    19074 1
   19736    19037    19038 1
   19737    19037    19075 1
   19738    19037    19076 1
   19739    19038    19077 1
   19740    19038    19078 1
   19741    19038    19079 1
   19742    19080    19081 1
   19743    19080    19100 1
   19744    19080    19101 1
   19745    19081    19082 1
   19746    19081    19092 1
   19747    19081    19102 1
   19748    19082    19083 1
   19749    19082    19103 1
   19750    19082    19104 1
   19751    19083    19084 1
   19752    19083    19105 1
   19753    19083    19106 1
   19754    19084    19085 1
   19755    19084    19107 1
   19756    19084    19108 1
   19757    19085    19086 1
   19758    19085    19109 1
   19759    19085    19110 1
   19760    19086    19087 1
   19761    19086    19111 1
   19762    19086    19112 1
   19763    19087    19088 1
   19764    19087    19113 1
   19765    19087    19114 1
   19766    19088    19089 1
   19767    19088    19115 1
   19768    19088    19116 1
   19769    19089    19090 1
   19770    19089    19117 1
   19771    19089    19118 1
   19772    19090    19091 1
   19773    19090    19119 1
   19774    19090    19120 1
   19775    19091    19121 1
   19776    19091    19122 1
   19777    19091    19123 1
   19778    19092    19093 1
   19779    19092    19124 1
   19780    19092    19125 1
   19781    19093    19094 1
   19782    19093    19126 1
   19783    19093    19127 1
   19784    19094    19095 1
   19785    19094    19128 1
   19786    19094    19129 1
   19787    19095    19096 1
   19788    19095    19130 1
   19789    19095    19131 1
   19790    19096    19097 1
   19791    19096    19132 1
   19792    19096    19133 1
   19793    19097    19098 1
   19794    19097    19134 1
   19795    19097    19135 1
   19796    19098    19099 1
   19797    19098    19136 1
   19798    19098    19137 1
   19799    19099    19138 1
   19800    19099    19139 1
   19801    19099    19140 1
   19802    19141    19142 1
   19803    19141    19148 1
   19804    19141    19164 1
   19805    19141    19225 1
   19806    19142    19143 1
   19807    19142    19146 1
   19808    19143    19144 1
   19809    19143    19147 1
   19810    19144    19145 1
   19811    19145    19146 1
   19812    19146    19152 1
   19813    19147    19148 1
   19814    19147    19151 1
   19815    19148    19149 1
   19816    19149    19150 1
   19817    19149    19153 1
   19818    19150    19151 1
   19819    19150    19156 1
   19820    19154    19155 1
   19821    19154    19162 1
   19822    19155    19156 1
   19823    19155    19163 1
   19824    19156    19157 1
   19825    19157    19158 1
   19826    19157    19161 1
   19827    19158    19159 1
   19828    19159    19160 1
   19829    19160    19161 1
   19830    19161    19162 1
   19831    19162    19290 1
   19832    19164    19165 1
   19833    19164    19184 1
   19834    19164    19185 1
   19835    19165    19166 1
   19836    19165    19176 1
   19837    19165    19186 1
   19838    19166    19167 1
   19839    19166    19187 1
   19840    19166    19188 1
   19841    19167    19168 1
   19842    19167    19189 1
   19843    19167    19190 1
   19844    19168    19169 1
   19845    19168    19191 1
   19846    19168    19192 1
   19847    19169    19170 1
   19848    19169    19193 1
   19849    19169    19194 1
   19850    19170    19171 1
   19851    19170    19195 1
   19852    19170    19196 1
   19853    19171    19172 1
   19854    19171    19197 1
   19855    19171    19198 1
   19856    19172    19173 1
   19857    19172    19199 1
   19858    19172    19200 1
   19859    19173    19174 1
   19860    19173    19201 1
   19861    19173    19202 1
   19862    19174    19175 1
   19863    19174    19203 1
   19864    19174    19204 1
   19865    19175    19205 1
   19866    19175    19206 1
   19867    19175    19207 1
   19868    19176    19177 1
   19869    19176    19208 1
   19870    19176    19209 1
   19871    19177    19178 1
   19872    19177    19210 1
   19873    19177    19211 1
   19874    19178    19179 1
   19875    19178    19212 1
   19876    19178    19213 1
   19877    19179    19180 1
   19878    19179    19214 1
   19879    19179    19215 1
   19880    19180    19181 1
   19881    19180    19216 1
   19882    19180    19217 1
   19883    19181    19182 1
   19884    19181    19218 1
   19885    19181    19219 1
   19886    19182    19183 1
   19887    19182    19220 1
   19888    19182    19221 1
   19889    19183    19222 1
   19890    19183    19223 1
   19891    19183    19224 1
   19892    19225    19226 1
   19893    19225    19245 1
   19894    19225    19246 1
   19895    19226    19227 1
   19896    19226    19237 1
   19897    19226    19247 1
   19898    19227    19228 1
   19899    19227    19248 1
   19900    19227    19249 1
   19901    19228    19229 1
   19902    19228    19250 1
   19903    19228    19251 1
   19904    19229    19230 1
   19905    19229    19252 1
   19906    19229    19253 1
   19907    19230    19231 1
   19908    19230    19254 1
   19909    19230    19255 1
   19910    19231    19232 1
   19911    19231    19256 1
   19912    19231    19257 1
   19913    19232    19233 1
   19914    19232    19258 1
   19915    19232    19259 1
   19916    19233    19234 1
   19917    19233    19260 1
   19918    19233    19261 1
   19919    19234    19235 1
   19920    19234    19262 1
   19921    19234    19263 1
   19922    19235    19236 1
   19923    19235    19264 1
   19924    19235    19265 1
   19925    19236    19266 1
   19926    19236    19267 1
   19927    19236    19268 1
   19928    19237    19238 1
   19929    19237    19269 1
   19930    19237    19270 1
   19931    19238    19239 1
   19932    19238    19271 1
   19933    19238    19272 1
   19934    19239    19240 1
   19935    19239    19273 1
   19936    19239    19274 1
   19937    19240    19241 1
   19938    19240    19275 1
   19939    19240    19276 1
   19940    19241    19242 1
   19941    19241    19277 1
   19942    19241    19278 1
   19943    19242    19243 1
   19944    19242    19279 1
   19945    19242    19280 1
   19946    19243    19244 1
   19947    19243    19281 1
   19948    19243    19282 1
   19949    19244    19283 1
   19950    19244    19284 1
   19951    19244    19285 1
   19952    19286    19287 1
   19953    19286    19293 1
   19954    19286    19309 1
   19955    19286    19370 1
   19956    19287    19288 1
   19957    19287    19291 1
   19958    19288    19289 1
   19959    19288    19292 1
   19960    19289    19290 1
   19961    19290    19291 1
   19962    19291    19297 1
   19963    19292    19293 1
   19964    19292    19296 1
   19965    19293    19294 1
   19966    19294    19295 1
   19967    19294    19298 1
   19968    19295    19296 1
   19969    19295    19301 1
   19970    19299    19300 1
   19971    19299    19307 1
   19972    19300    19301 1
   19973    19300    19308 1
   19974    19301    19302 1
   19975    19302    19303 1
   19976    19302    19306 1
   19977    19303    19304 1
   19978    19304    19305 1
   19979    19305    19306 1
   19980    19306    19307 1
   19981    19307    19435 1
   19982    19309    19310 1
   19983    19309    19329 1
   19984    19309    19330 1
   19985    19310    19311 1
   19986    19310    19321 1
   19987    19310    19331 1
   19988    19311    19312 1
   19989    19311    19332 1
   19990    19311    19333 1
   19991    19312    19313 1
   19992    19312    19334 1
   19993    19312    19335 1
   19994    19313    19314 1
   19995    19313    19336 1
   19996    19313    19337 1
   19997    19314    19315 1
   19998    19314    19338 1
   19999    19314    19339 1
   20000    19315    19316 1
   20001    19315    19340 1
   20002    19315    19341 1
   20003    19316    19317 1
   20004    19316    19342 1
   20005    19316    19343 1
   20006    19317    19318 1
   20007    19317    19344 1
   20008    19317    19345 1
   20009    19318    19319 1
   20010    19318    19346 1
   20011    19318    19347 1
   20012    19319    19320 1
   20013    19319    19348 1
   20014    19319    19349 1
   20015    19320    19350 1
   20016    19320    19351 1
   20017    19320    19352 1
   20018    19321    19322 1
   20019    19321    19353 1
   20020    19321    19354 1
   20021    19322    19323 1
   20022    19322    19355 1
   20023    19322    19356 1
   20024    19323    19324 1
   20025    19323    19357 1
   20026    19323    19358 1
   20027    19324    19325 1
   20028    19324    19359 1
   20029    19324    19360 1
   20030    19325    19326 1
   20031    19325    19361 1
   20032    19325    19362 1
   20033    19326    19327 1
   20034    19326    19363 1
   20035    19326    19364 1
   20036    19327    19328 1
   20037    19327    19365 1
   20038    19327    19366 1
   20039    19328    19367 1
   20040    19328    19368 1
   20041    19328    19369 1
   20042    19370    19371 1
   20043    19370    19390 1
   20044    19370    19391 1
   20045    19371    19372 1
   20046    19371    19382 1
   20047    19371    19392 1
   20048    19372    19373 1
   20049    19372    19393 1
   20050    19372    19394 1
   20051    19373    19374 1
   20052    19373    19395 1
   20053    19373    19396 1
   20054    19374    19375 1
   20055    19374    19397 1
   20056    19374    19398 1
   20057    19375    19376 1
   20058    19375    19399 1
   20059    19375    19400 1
   20060    19376    19377 1
   20061    19376    19401 1
   20062    19376    19402 1
   20063    19377    19378 1
   20064    19377    19403 1
   20065    19377    19404 1
   20066    19378    19379 1
   20067    19378    19405 1
   20068    19378    19406 1
   20069    19379    19380 1
   20070    19379    19407 1
   20071    19379    19408 1
   20072    19380    19381 1
   20073    19380    19409 1
   20074    19380    19410 1
   20075    19381    19411 1
   20076    19381    19412 1
   20077    19381    19413 1
   20078    19382    19383 1
   20079    19382    19414 1
   20080    19382    19415 1
   20081    19383    19384 1
   20082    19383    19416 1
   20083    19383    19417 1
   20084    19384    19385 1
   20085    19384    19418 1
   20086    19384    19419 1
   20087    19385    19386 1
   20088    19385    19420 1
   20089    19385    19421 1
   20090    19386    19387 1
   20091    19386    19422 1
   20092    19386    19423 1
   20093    19387    19388 1
   20094    19387    19424 1
   20095    19387    19425 1
   20096    19388    19389 1
   20097    19388    19426 1
   20098    19388    19427 1
   20099    19389    19428 1
   20100    19389    19429 1
   20101    19389    19430 1
   20102    19431    19432 1
   20103    19431    19438 1
   20104    19431    19454 1
   20105    19431    19515 1
   20106    19432    19433 1
   20107    19432    19436 1
   20108    19433    19434 1
   20109    19433    19437 1
   20110    19434    19435 1
   20111    19435    19436 1
   20112    19436    19442 1
   20113    19437    19438 1
   20114    19437    19441 1
   20115    19438    19439 1
   20116    19439    19440 1
   20117    19439    19443 1
   20118    19440    19441 1
   20119    19440    19446 1
   20120    19444    19445 1
   20121    19444    19452 1
   20122    19445    19446 1
   20123    19445    19453 1
   20124    19446    19447 1
   20125    19447    19448 1
   20126    19447    19451 1
   20127    19448    19449 1
   20128    19449    19450 1
   20129    19450    19451 1
   20130    19451    19452 1
   20131    19452    19580 1
   20132    19454    19455 1
   20133    19454    19474 1
   20134    19454    19475 1
   20135    19455    19456 1
   20136    19455    19466 1
   20137    19455    19476 1
   20138    19456    19457 1
   20139    19456    19477 1
   20140    19456    19478 1
   20141    19457    19458 1
   20142    19457    19479 1
   20143    19457    19480 1
   20144    19458    19459 1
   20145    19458    19481 1
   20146    19458    19482 1
   20147    19459    19460 1
   20148    19459    19483 1
   20149    19459    19484 1
   20150    19460    19461 1
   20151    19460    19485 1
   20152    19460    19486 1
   20153    19461    19462 1
   20154    19461    19487 1
   20155    19461    19488 1
   20156    19462    19463 1
   20157    19462    19489 1
   20158    19462    19490 1
   20159    19463    19464 1
   20160    19463    19491 1
   20161    19463    19492 1
   20162    19464    19465 1
   20163    19464    19493 1
   20164    19464    19494 1
   20165    19465    19495 1
   20166    19465    19496 1
   20167    19465    19497 1
   20168    19466    19467 1
   20169    19466    19498 1
   20170    19466    19499 1
   20171    19467    19468 1
   20172    19467    19500 1
   20173    19467    19501 1
   20174    19468    19469 1
   20175    19468    19502 1
   20176    19468    19503 1
   20177    19469    19470 1
   20178    19469    19504 1
   20179    19469    19505 1
   20180    19470    19471 1
   20181    19470    19506 1
   20182    19470    19507 1
   20183    19471    19472 1
   20184    19471    19508 1
   20185    19471    19509 1
   20186    19472    19473 1
   20187    19472    19510 1
   20188    19472    19511 1
   20189    19473    19512 1
   20190    19473    19513 1
   20191    19473    19514 1
   20192    19515    19516 1
   20193    19515    19535 1
   20194    19515    19536 1
   20195    19516    19517 1
   20196    19516    19527 1
   20197    19516    19537 1
   20198    19517    19518 1
   20199    19517    19538 1
   20200    19517    19539 1
   20201    19518    19519 1
   20202    19518    19540 1
   20203    19518    19541 1
   20204    19519    19520 1
   20205    19519    19542 1
   20206    19519    19543 1
   20207    19520    19521 1
   20208    19520    19544 1
   20209    19520    19545 1
   20210    19521    19522 1
   20211    19521    19546 1
   20212    19521    19547 1
   20213    19522    19523 1
   20214    19522    19548 1
   20215    19522    19549 1
   20216    19523    19524 1
   20217    19523    19550 1
   20218    19523    19551 1
   20219    19524    19525 1
   20220    19524    19552 1
   20221    19524    19553 1
   20222    19525    19526 1
   20223    19525    19554 1
   20224    19525    19555 1
   20225    19526    19556 1
   20226    19526    19557 1
   20227    19526    19558 1
   20228    19527    19528 1
   20229    19527    19559 1
   20230    19527    19560 1
   20231    19528    19529 1
   20232    19528    19561 1
   20233    19528    19562 1
   20234    19529    19530 1
   20235    19529    19563 1
   20236    19529    19564 1
   20237    19530    19531 1
   20238    19530    19565 1
   20239    19530    19566 1
   20240    19531    19532 1
   20241    19531    19567 1
   20242    19531    19568 1
   20243    19532    19533 1
   20244    19532    19569 1
   20245    19532    19570 1
   20246    19533    19534 1
   20247    19533    19571 1
   20248    19533    19572 1
   20249    19534    19573 1
   20250    19534    19574 1
   20251    19534    19575 1
   20252    19576    19577 1
   20253    19576    19583 1
   20254    19576    19599 1
   20255    19576    19660 1
   20256    19577    19578 1
   20257    19577    19581 1
   20258    19578    19579 1
   20259    19578    19582 1
   20260    19579    19580 1
   20261    19580    19581 1
   20262    19581    19587 1
   20263    19582    19583 1
   20264    19582    19586 1
   20265    19583    19584 1
   20266    19584    19585 1
   20267    19584    19588 1
   20268    19585    19586 1
   20269    19585    19591 1
   20270    19589    19590 1
   20271    19589    19597 1
   20272    19590    19591 1
   20273    19590    19598 1
   20274    19591    19592 1
   20275    19592    19593 1
   20276    19592    19596 1
   20277    19593    19594 1
   20278    19594    19595 1
   20279    19595    19596 1
   20280    19596    19597 1
   20281    19597    19725 1
   20282    19599    19600 1
   20283    19599    19619 1
   20284    19599    19620 1
   20285    19600    19601 1
   20286    19600    19611 1
   20287    19600    19621 1
   20288    19601    19602 1
   20289    19601    19622 1
   20290    19601    19623 1
   20291    19602    19603 1
   20292    19602    19624 1
   20293    19602    19625 1
   20294    19603    19604 1
   20295    19603    19626 1
   20296    19603    19627 1
   20297    19604    19605 1
   20298    19604    19628 1
   20299    19604    19629 1
   20300    19605    19606 1
   20301    19605    19630 1
   20302    19605    19631 1
   20303    19606    19607 1
   20304    19606    19632 1
   20305    19606    19633 1
   20306    19607    19608 1
   20307    19607    19634 1
   20308    19607    19635 1
   20309    19608    19609 1
   20310    19608    19636 1
   20311    19608    19637 1
   20312    19609    19610 1
   20313    19609    19638 1
   20314    19609    19639 1
   20315    19610    19640 1
   20316    19610    19641 1
   20317    19610    19642 1
   20318    19611    19612 1
   20319    19611    19643 1
   20320    19611    19644 1
   20321    19612    19613 1
   20322    19612    19645 1
   20323    19612    19646 1
   20324    19613    19614 1
   20325    19613    19647 1
   20326    19613    19648 1
   20327    19614    19615 1
   20328    19614    19649 1
   20329    19614    19650 1
   20330    19615    19616 1
   20331    19615    19651 1
   20332    19615    19652 1
   20333    19616    19617 1
   20334    19616    19653 1
   20335    19616    19654 1
   20336    19617    19618 1
   20337    19617    19655 1
   20338    19617    19656 1
   20339    19618    19657 1
   20340    19618    19658 1
   20341    19618    19659 1
   20342    19660    19661 1
   20343    19660    19680 1
   20344    19660    19681 1
   20345    19661    19662 1
   20346    19661    19672 1
   20347    19661    19682 1
   20348    19662    19663 1
   20349    19662    19683 1
   20350    19662    19684 1
   20351    19663    19664 1
   20352    19663    19685 1
   20353    19663    19686 1
   20354    19664    19665 1
   20355    19664    19687 1
   20356    19664    19688 1
   20357    19665    19666 1
   20358    19665    19689 1
   20359    19665    19690 1
   20360    19666    19667 1
   20361    19666    19691 1
   20362    19666    19692 1
   20363    19667    19668 1
   20364    19667    19693 1
   20365    19667    19694 1
   20366    19668    19669 1
   20367    19668    19695 1
   20368    19668    19696 1
   20369    19669    19670 1
   20370    19669    19697 1
   20371    19669    19698 1
   20372    19670    19671 1
   20373    19670    19699 1
   20374    19670    19700 1
   20375    19671    19701 1
   20376    19671    19702 1
   20377    19671    19703 1
   20378    19672    19673 1
   20379    19672    19704 1
   20380    19672    19705 1
   20381    19673    19674 1
   20382    19673    19706 1
   20383    19673    19707 1
   20384    19674    19675 1
   20385    19674    19708 1
   20386    19674    19709 1
   20387    19675    19676 1
   20388    19675    19710 1
   20389    19675    19711 1
   20390    19676    19677 1
   20391    19676    19712 1
   20392    19676    19713 1
   20393    19677    19678 1
   20394    19677    19714 1
   20395    19677    19715 1
   20396    19678    19679 1
   20397    19678    19716 1
   20398    19678    19717 1
   20399    19679    19718 1
   20400    19679    19719 1
   20401    19679    19720 1
   20402    19721    19722 1
   20403    19721    19728 1
   20404    19721    19744 1
   20405    19721    19805 1
   20406    19722    19723 1
   20407    19722    19726 1
   20408    19723    19724 1
   20409    19723    19727 1
   20410    19724    19725 1
   20411    19725    19726 1
   20412    19726    19732 1
   20413    19727    19728 1
   20414    19727    19731 1
   20415    19728    19729 1
   20416    19729    19730 1
   20417    19729    19733 1
   20418    19730    19731 1
   20419    19730    19736 1
   20420    19734    19735 1
   20421    19734    19742 1
   20422    19735    19736 1
   20423    19735    19743 1
   20424    19736    19737 1
   20425    19737    19738 1
   20426    19737    19741 1
   20427    19738    19739 1
   20428    19739    19740 1
   20429    19740    19741 1
   20430    19741    19742 1
   20431    19742    19870 1
   20432    19744    19745 1
   20433    19744    19764 1
   20434    19744    19765 1
   20435    19745    19746 1
   20436    19745    19756 1
   20437    19745    19766 1
   20438    19746    19747 1
   20439    19746    19767 1
   20440    19746    19768 1
   20441    19747    19748 1
   20442    19747    19769 1
   20443    19747    19770 1
   20444    19748    19749 1
   20445    19748    19771 1
   20446    19748    19772 1
   20447    19749    19750 1
   20448    19749    19773 1
   20449    19749    19774 1
   20450    19750    19751 1
   20451    19750    19775 1
   20452    19750    19776 1
   20453    19751    19752 1
   20454    19751    19777 1
   20455    19751    19778 1
   20456    19752    19753 1
   20457    19752    19779 1
   20458    19752    19780 1
   20459    19753    19754 1
   20460    19753    19781 1
   20461    19753    19782 1
   20462    19754    19755 1
   20463    19754    19783 1
   20464    19754    19784 1
   20465    19755    19785 1
   20466    19755    19786 1
   20467    19755    19787 1
   20468    19756    19757 1
   20469    19756    19788 1
   20470    19756    19789 1
   20471    19757    19758 1
   20472    19757    19790 1
   20473    19757    19791 1
   20474    19758    19759 1
   20475    19758    19792 1
   20476    19758    19793 1
   20477    19759    19760 1
   20478    19759    19794 1
   20479    19759    19795 1
   20480    19760    19761 1
   20481    19760    19796 1
   20482    19760    19797 1
   20483    19761    19762 1
   20484    19761    19798 1
   20485    19761    19799 1
   20486    19762    19763 1
   20487    19762    19800 1
   20488    19762    19801 1
   20489    19763    19802 1
   20490    19763    19803 1
   20491    19763    19804 1
   20492    19805    19806 1
   20493    19805    19825 1
   20494    19805    19826 1
   20495    19806    19807 1
   20496    19806    19817 1
   20497    19806    19827 1
   20498    19807    19808 1
   20499    19807    19828 1
   20500    19807    19829 1
   20501    19808    19809 1
   20502    19808    19830 1
   20503    19808    19831 1
   20504    19809    19810 1
   20505    19809    19832 1
   20506    19809    19833 1
   20507    19810    19811 1
   20508    19810    19834 1
   20509    19810    19835 1
   20510    19811    19812 1
   20511    19811    19836 1
   20512    19811    19837 1
   20513    19812    19813 1
   20514    19812    19838 1
   20515    19812    19839 1
   20516    19813    19814 1
   20517    19813    19840 1
   20518    19813    19841 1
   20519    19814    19815 1
   20520    19814    19842 1
   20521    19814    19843 1
   20522    19815    19816 1
   20523    19815    19844 1
   20524    19815    19845 1
   20525    19816    19846 1
   20526    19816    19847 1
   20527    19816    19848 1
   20528    19817    19818 1
   20529    19817    19849 1
   20530    19817    19850 1
   20531    19818    19819 1
   20532    19818    19851 1
   20533    19818    19852 1
   20534    19819    19820 1
   20535    19819    19853 1
   20536    19819    19854 1
   20537    19820    19821 1
   20538    19820    19855 1
   20539    19820    19856 1
   20540    19821    19822 1
   20541    19821    19857 1
   20542    19821    19858 1
   20543    19822    19823 1
   20544    19822    19859 1
   20545    19822    19860 1
   20546    19823    19824 1
   20547    19823    19861 1
   20548    19823    19862 1
   20549    19824    19863 1
   20550    19824    19864 1
   20551    19824    19865 1
   20552    19866    19867 1
   20553    19866    19873 1
   20554    19866    19889 1
   20555    19866    19950 1
   20556    19867    19868 1
   20557    19867    19871 1
   20558    19868    19869 1
   20559    19868    19872 1
   20560    19869    19870 1
   20561    19870    19871 1
   20562    19871    19877 1
   20563    19872    19873 1
   20564    19872    19876 1
   20565    19873    19874 1
   20566    19874    19875 1
   20567    19874    19878 1
   20568    19875    19876 1
   20569    19875    19881 1
   20570    19879    19880 1
   20571    19879    19887 1
   20572    19880    19881 1
   20573    19880    19888 1
   20574    19881    19882 1
   20575    19882    19883 1
   20576    19882    19886 1
   20577    19883    19884 1
   20578    19884    19885 1
   20579    19885    19886 1
   20580    19886    19887 1
   20581    19887    20015 1
   20582    19889    19890 1
   20583    19889    19909 1
   20584    19889    19910 1
   20585    19890    19891 1
   20586    19890    19901 1
   20587    19890    19911 1
   20588    19891    19892 1
   20589    19891    19912 1
   20590    19891    19913 1
   20591    19892    19893 1
   20592    19892    19914 1
   20593    19892    19915 1
   20594    19893    19894 1
   20595    19893    19916 1
   20596    19893    19917 1
   20597    19894    19895 1
   20598    19894    19918 1
   20599    19894    19919 1
   20600    19895    19896 1
   20601    19895    19920 1
   20602    19895    19921 1
   20603    19896    19897 1
   20604    19896    19922 1
   20605    19896    19923 1
   20606    19897    19898 1
   20607    19897    19924 1
   20608    19897    19925 1
   20609    19898    19899 1
   20610    19898    19926 1
   20611    19898    19927 1
   20612    19899    19900 1
   20613    19899    19928 1
   20614    19899    19929 1
   20615    19900    19930 1
   20616    19900    19931 1
   20617    19900    19932 1
   20618    19901    19902 1
   20619    19901    19933 1
   20620    19901    19934 1
   20621    19902    19903 1
   20622    19902    19935 1
   20623    19902    19936 1
   20624    19903    19904 1
   20625    19903    19937 1
   20626    19903    19938 1
   20627    19904    19905 1
   20628    19904    19939 1
   20629    19904    19940 1
   20630    19905    19906 1
   20631    19905    19941 1
   20632    19905    19942 1
   20633    19906    19907 1
   20634    19906    19943 1
   20635    19906    19944 1
   20636    19907    19908 1
   20637    19907    19945 1
   20638    19907    19946 1
   20639    19908    19947 1
   20640    19908    19948 1
   20641    19908    19949 1
   20642    19950    19951 1
   20643    19950    19970 1
   20644    19950    19971 1
   20645    19951    19952 1
   20646    19951    19962 1
   20647    19951    19972 1
   20648    19952    19953 1
   20649    19952    19973 1
   20650    19952    19974 1
   20651    19953    19954 1
   20652    19953    19975 1
   20653    19953    19976 1
   20654    19954    19955 1
   20655    19954    19977 1
   20656    19954    19978 1
   20657    19955    19956 1
   20658    19955    19979 1
   20659    19955    19980 1
   20660    19956    19957 1
   20661    19956    19981 1
   20662    19956    19982 1
   20663    19957    19958 1
   20664    19957    19983 1
   20665    19957    19984 1
   20666    19958    19959 1
   20667    19958    19985 1
   20668    19958    19986 1
   20669    19959    19960 1
   20670    19959    19987 1
   20671    19959    19988 1
   20672    19960    19961 1
   20673    19960    19989 1
   20674    19960    19990 1
   20675    19961    19991 1
   20676    19961    19992 1
   20677    19961    19993 1
   20678    19962    19963 1
   20679    19962    19994 1
   20680    19962    19995 1
   20681    19963    19964 1
   20682    19963    19996 1
   20683    19963    19997 1
   20684    19964    19965 1
   20685    19964    19998 1
   20686    19964    19999 1
   20687    19965    19966 1
   20688    19965    20000 1
   20689    19965    20001 1
   20690    19966    19967 1
   20691    19966    20002 1
   20692    19966    20003 1
   20693    19967    19968 1
   20694    19967    20004 1
   20695    19967    20005 1
   20696    19968    19969 1
   20697    19968    20006 1
   20698    19968    20007 1
   20699    19969    20008 1
   20700    19969    20009 1
   20701    19969    20010 1
   20702    20011    20012 1
   20703    20011    20018 1
   20704    20011    20034 1
   20705    20011    20095 1
   20706    20012    20013 1
   20707    20012    20016 1
   20708    20013    20014 1
   20709    20013    20017 1
   20710    20014    20015 1
   20711    20015    20016 1
   20712    20016    20022 1
   20713    20017    20018 1
   20714    20017    20021 1
   20715    20018    20019 1
   20716    20019    20020 1
   20717    20019    20023 1
   20718    20020    20021 1
   20719    20020    20026 1
   20720    20024    20025 1
   20721    20024    20032 1
   20722    20025    20026 1
   20723    20025    20033 1
   20724    20026    20027 1
   20725    20027    20028 1
   20726    20027    20031 1
   20727    20028    20029 1
   20728    20029    20030 1
   20729    20030    20031 1
   20730    20031    20032 1
   20731    20032    20160 1
   20732    20034    20035 1
   20733    20034    20054 1
   20734    20034    20055 1
   20735    20035    20036 1
   20736    20035    20046 1
   20737    20035    20056 1
   20738    20036    20037 1
   20739    20036    20057 1
   20740    20036    20058 1
   20741    20037    20038 1
   20742    20037    20059 1
   20743    20037    20060 1
   20744    20038    20039 1
   20745    20038    20061 1
   20746    20038    20062 1
   20747    20039    20040 1
   20748    20039    20063 1
   20749    20039    20064 1
   20750    20040    20041 1
   20751    20040    20065 1
   20752    20040    20066 1
   20753    20041    20042 1
   20754    20041    20067 1
   20755    20041    20068 1
   20756    20042    20043 1
   20757    20042    20069 1
   20758    20042    20070 1
   20759    20043    20044 1
   20760    20043    20071 1
   20761    20043    20072 1
   20762    20044    20045 1
   20763    20044    20073 1
   20764    20044    20074 1
   20765    20045    20075 1
   20766    20045    20076 1
   20767    20045    20077 1
   20768    20046    20047 1
   20769    20046    20078 1
   20770    20046    20079 1
   20771    20047    20048 1
   20772    20047    20080 1
   20773    20047    20081 1
   20774    20048    20049 1
   20775    20048    20082 1
   20776    20048    20083 1
   20777    20049    20050 1
   20778    20049    20084 1
   20779    20049    20085 1
   20780    20050    20051 1
   20781    20050    20086 1
   20782    20050    20087 1
   20783    20051    20052 1
   20784    20051    20088 1
   20785    20051    20089 1
   20786    20052    20053 1
   20787    20052    20090 1
   20788    20052    20091 1
   20789    20053    20092 1
   20790    20053    20093 1
   20791    20053    20094 1
   20792    20095    20096 1
   20793    20095    20115 1
   20794    20095    20116 1
   20795    20096    20097 1
   20796    20096    20107 1
   20797    20096    20117 1
   20798    20097    20098 1
   20799    20097    20118 1
   20800    20097    20119 1
   20801    20098    20099 1
   20802    20098    20120 1
   20803    20098    20121 1
   20804    20099    20100 1
   20805    20099    20122 1
   20806    20099    20123 1
   20807    20100    20101 1
   20808    20100    20124 1
   20809    20100    20125 1
   20810    20101    20102 1
   20811    20101    20126 1
   20812    20101    20127 1
   20813    20102    20103 1
   20814    20102    20128 1
   20815    20102    20129 1
   20816    20103    20104 1
   20817    20103    20130 1
   20818    20103    20131 1
   20819    20104    20105 1
   20820    20104    20132 1
   20821    20104    20133 1
   20822    20105    20106 1
   20823    20105    20134 1
   20824    20105    20135 1
   20825    20106    20136 1
   20826    20106    20137 1
   20827    20106    20138 1
   20828    20107    20108 1
   20829    20107    20139 1
   20830    20107    20140 1
   20831    20108    20109 1
   20832    20108    20141 1
   20833    20108    20142 1
   20834    20109    20110 1
   20835    20109    20143 1
   20836    20109    20144 1
   20837    20110    20111 1
   20838    20110    20145 1
   20839    20110    20146 1
   20840    20111    20112 1
   20841    20111    20147 1
   20842    20111    20148 1
   20843    20112    20113 1
   20844    20112    20149 1
   20845    20112    20150 1
   20846    20113    20114 1
   20847    20113    20151 1
   20848    20113    20152 1
   20849    20114    20153 1
   20850    20114    20154 1
   20851    20114    20155 1
   20852    20156    20157 1
   20853    20156    20163 1
   20854    20156    20179 1
   20855    20156    20240 1
   20856    20157    20158 1
   20857    20157    20161 1
   20858    20158    20159 1
   20859    20158    20162 1
   20860    20159    20160 1
   20861    20160    20161 1
   20862    20161    20167 1
   20863    20162    20163 1
   20864    20162    20166 1
   20865    20163    20164 1
   20866    20164    20165 1
   20867    20164    20168 1
   20868    20165    20166 1
   20869    20165    20171 1
   20870    20169    20170 1
   20871    20169    20177 1
   20872    20170    20171 1
   20873    20170    20178 1
   20874    20171    20172 1
   20875    20172    20173 1
   20876    20172    20176 1
   20877    20173    20174 1
   20878    20174    20175 1
   20879    20175    20176 1
   20880    20176    20177 1
   20881    20177    20305 1
   20882    20179    20180 1
   20883    20179    20199 1
   20884    20179    20200 1
   20885    20180    20181 1
   20886    20180    20191 1
   20887    20180    20201 1
   20888    20181    20182 1
   20889    20181    20202 1
   20890    20181    20203 1
   20891    20182    20183 1
   20892    20182    20204 1
   20893    20182    20205 1
   20894    20183    20184 1
   20895    20183    20206 1
   20896    20183    20207 1
   20897    20184    20185 1
   20898    20184    20208 1
   20899    20184    20209 1
   20900    20185    20186 1
   20901    20185    20210 1
   20902    20185    20211 1
   20903    20186    20187 1
   20904    20186    20212 1
   20905    20186    20213 1
   20906    20187    20188 1
   20907    20187    20214 1
   20908    20187    20215 1
   20909    20188    20189 1
   20910    20188    20216 1
   20911    20188    20217 1
   20912    20189    20190 1
   20913    20189    20218 1
   20914    20189    20219 1
   20915    20190    20220 1
   20916    20190    20221 1
   20917    20190    20222 1
   20918    20191    20192 1
   20919    20191    20223 1
   20920    20191    20224 1
   20921    20192    20193 1
   20922    20192    20225 1
   20923    20192    20226 1
   20924    20193    20194 1
   20925    20193    20227 1
   20926    20193    20228 1
   20927    20194    20195 1
   20928    20194    20229 1
   20929    20194    20230 1
   20930    20195    20196 1
   20931    20195    20231 1
   20932    20195    20232 1
   20933    20196    20197 1
   20934    20196    20233 1
   20935    20196    20234 1
   20936    20197    20198 1
   20937    20197    20235 1
   20938    20197    20236 1
   20939    20198    20237 1
   20940    20198    20238 1
   20941    20198    20239 1
   20942    20240    20241 1
   20943    20240    20260 1
   20944    20240    20261 1
   20945    20241    20242 1
   20946    20241    20252 1
   20947    20241    20262 1
   20948    20242    20243 1
   20949    20242    20263 1
   20950    20242    20264 1
   20951    20243    20244 1
   20952    20243    20265 1
   20953    20243    20266 1
   20954    20244    20245 1
   20955    20244    20267 1
   20956    20244    20268 1
   20957    20245    20246 1
   20958    20245    20269 1
   20959    20245    20270 1
   20960    20246    20247 1
   20961    20246    20271 1
   20962    20246    20272 1
   20963    20247    20248 1
   20964    20247    20273 1
   20965    20247    20274 1
   20966    20248    20249 1
   20967    20248    20275 1
   20968    20248    20276 1
   20969    20249    20250 1
   20970    20249    20277 1
   20971    20249    20278 1
   20972    20250    20251 1
   20973    20250    20279 1
   20974    20250    20280 1
   20975    20251    20281 1
   20976    20251    20282 1
   20977    20251    20283 1
   20978    20252    20253 1
   20979    20252    20284 1
   20980    20252    20285 1
   20981    20253    20254 1
   20982    20253    20286 1
   20983    20253    20287 1
   20984    20254    20255 1
   20985    20254    20288 1
   20986    20254    20289 1
   20987    20255    20256 1
   20988    20255    20290 1
   20989    20255    20291 1
   20990    20256    20257 1
   20991    20256    20292 1
   20992    20256    20293 1
   20993    20257    20258 1
   20994    20257    20294 1
   20995    20257    20295 1
   20996    20258    20259 1
   20997    20258    20296 1
   20998    20258    20297 1
   20999    20259    20298 1
   21000    20259    20299 1
   21001    20259    20300 1
   21002    20301    20302 1
   21003    20301    20308 1
   21004    20301    20324 1
   21005    20301    20385 1
   21006    20302    20303 1
   21007    20302    20306 1
   21008    20303    20304 1
   21009    20303    20307 1
   21010    20304    20305 1
   21011    20305    20306 1
   21012    20306    20312 1
   21013    20307    20308 1
   21014    20307    20311 1
   21015    20308    20309 1
   21016    20309    20310 1
   21017    20309    20313 1
   21018    20310    20311 1
   21019    20310    20316 1
   21020    20314    20315 1
   21021    20314    20322 1
   21022    20315    20316 1
   21023    20315    20323 1
   21024    20316    20317 1
   21025    20317    20318 1
   21026    20317    20321 1
   21027    20318    20319 1
   21028    20319    20320 1
   21029    20320    20321 1
   21030    20321    20322 1
   21031    20322    20450 1
   21032    20324    20325 1
   21033    20324    20344 1
   21034    20324    20345 1
   21035    20325    20326 1
   21036    20325    20336 1
   21037    20325    20346 1
   21038    20326    20327 1
   21039    20326    20347 1
   21040    20326    20348 1
   21041    20327    20328 1
   21042    20327    20349 1
   21043    20327    20350 1
   21044    20328    20329 1
   21045    20328    20351 1
   21046    20328    20352 1
   21047    20329    20330 1
   21048    20329    20353 1
   21049    20329    20354 1
   21050    20330    20331 1
   21051    20330    20355 1
   21052    20330    20356 1
   21053    20331    20332 1
   21054    20331    20357 1
   21055    20331    20358 1
   21056    20332    20333 1
   21057    20332    20359 1
   21058    20332    20360 1
   21059    20333    20334 1
   21060    20333    20361 1
   21061    20333    20362 1
   21062    20334    20335 1
   21063    20334    20363 1
   21064    20334    20364 1
   21065    20335    20365 1
   21066    20335    20366 1
   21067    20335    20367 1
   21068    20336    20337 1
   21069    20336    20368 1
   21070    20336    20369 1
   21071    20337    20338 1
   21072    20337    20370 1
   21073    20337    20371 1
   21074    20338    20339 1
   21075    20338    20372 1
   21076    20338    20373 1
   21077    20339    20340 1
   21078    20339    20374 1
   21079    20339    20375 1
   21080    20340    20341 1
   21081    20340    20376 1
   21082    20340    20377 1
   21083    20341    20342 1
   21084    20341    20378 1
   21085    20341    20379 1
   21086    20342    20343 1
   21087    20342    20380 1
   21088    20342    20381 1
   21089    20343    20382 1
   21090    20343    20383 1
   21091    20343    20384 1
   21092    20385    20386 1
   21093    20385    20405 1
   21094    20385    20406 1
   21095    20386    20387 1
   21096    20386    20397 1
   21097    20386    20407 1
   21098    20387    20388 1
   21099    20387    20408 1
   21100    20387    20409 1
   21101    20388    20389 1
   21102    20388    20410 1
   21103    20388    20411 1
   21104    20389    20390 1
   21105    20389    20412 1
   21106    20389    20413 1
   21107    20390    20391 1
   21108    20390    20414 1
   21109    20390    20415 1
   21110    20391    20392 1
   21111    20391    20416 1
   21112    20391    20417 1
   21113    20392    20393 1
   21114    20392    20418 1
   21115    20392    20419 1
   21116    20393    20394 1
   21117    20393    20420 1
   21118    20393    20421 1
   21119    20394    20395 1
   21120    20394    20422 1
   21121    20394    20423 1
   21122    20395    20396 1
   21123    20395    20424 1
   21124    20395    20425 1
   21125    20396    20426 1
   21126    20396    20427 1
   21127    20396    20428 1
   21128    20397    20398 1
   21129    20397    20429 1
   21130    20397    20430 1
   21131    20398    20399 1
   21132    20398    20431 1
   21133    20398    20432 1
   21134    20399    20400 1
   21135    20399    20433 1
   21136    20399    20434 1
   21137    20400    20401 1
   21138    20400    20435 1
   21139    20400    20436 1
   21140    20401    20402 1
   21141    20401    20437 1
   21142    20401    20438 1
   21143    20402    20403 1
   21144    20402    20439 1
   21145    20402    20440 1
   21146    20403    20404 1
   21147    20403    20441 1
   21148    20403    20442 1
   21149    20404    20443 1
   21150    20404    20444 1
   21151    20404    20445 1
   21152    20446    20447 1
   21153    20446    20453 1
   21154    20446    20469 1
   21155    20446    20530 1
   21156    20447    20448 1
   21157    20447    20451 1
   21158    20448    20449 1
   21159    20448    20452 1
   21160    20449    20450 1
   21161    20450    20451 1
   21162    20451    20457 1
   21163    20452    20453 1
   21164    20452    20456 1
   21165    20453    20454 1
   21166    20454    20455 1
   21167    20454    20458 1
   21168    20455    20456 1
   21169    20455    20461 1
   21170    20459    20460 1
   21171    20459    20467 1
   21172    20460    20461 1
   21173    20460    20468 1
   21174    20461    20462 1
   21175    20462    20463 1
   21176    20462    20466 1
   21177    20463    20464 1
   21178    20464    20465 1
   21179    20465    20466 1
   21180    20466    20467 1
   21181    20467    20595 1
   21182    20469    20470 1
   21183    20469    20489 1
   21184    20469    20490 1
   21185    20470    20471 1
   21186    20470    20481 1
   21187    20470    20491 1
   21188    20471    20472 1
   21189    20471    20492 1
   21190    20471    20493 1
   21191    20472    20473 1
   21192    20472    20494 1
   21193    20472    20495 1
   21194    20473    20474 1
   21195    20473    20496 1
   21196    20473    20497 1
   21197    20474    20475 1
   21198    20474    20498 1
   21199    20474    20499 1
   21200    20475    20476 1
   21201    20475    20500 1
   21202    20475    20501 1
   21203    20476    20477 1
   21204    20476    20502 1
   21205    20476    20503 1
   21206    20477    20478 1
   21207    20477    20504 1
   21208    20477    20505 1
   21209    20478    20479 1
   21210    20478    20506 1
   21211    20478    20507 1
   21212    20479    20480 1
   21213    20479    20508 1
   21214    20479    20509 1
   21215    20480    20510 1
   21216    20480    20511 1
   21217    20480    20512 1
   21218    20481    20482 1
   21219    20481    20513 1
   21220    20481    20514 1
   21221    20482    20483 1
   21222    20482    20515 1
   21223    20482    20516 1
   21224    20483    20484 1
   21225    20483    20517 1
   21226    20483    20518 1
   21227    20484    20485 1
   21228    20484    20519 1
   21229    20484    20520 1
   21230    20485    20486 1
   21231    20485    20521 1
   21232    20485    20522 1
   21233    20486    20487 1
   21234    20486    20523 1
   21235    20486    20524 1
   21236    20487    20488 1
   21237    20487    20525 1
   21238    20487    20526 1
   21239    20488    20527 1
   21240    20488    20528 1
   21241    20488    20529 1
   21242    20530    20531 1
   21243    20530    20550 1
   21244    20530    20551 1
   21245    20531    20532 1
   21246    20531    20542 1
   21247    20531    20552 1
   21248    20532    20533 1
   21249    20532    20553 1
   21250    20532    20554 1
   21251    20533    20534 1
   21252    20533    20555 1
   21253    20533    20556 1
   21254    20534    20535 1
   21255    20534    20557 1
   21256    20534    20558 1
   21257    20535    20536 1
   21258    20535    20559 1
   21259    20535    20560 1
   21260    20536    20537 1
   21261    20536    20561 1
   21262    20536    20562 1
   21263    20537    20538 1
   21264    20537    20563 1
   21265    20537    20564 1
   21266    20538    20539 1
   21267    20538    20565 1
   21268    20538    20566 1
   21269    20539    20540 1
   21270    20539    20567 1
   21271    20539    20568 1
   21272    20540    20541 1
   21273    20540    20569 1
   21274    20540    20570 1
   21275    20541    20571 1
   21276    20541    20572 1
   21277    20541    20573 1
   21278    20542    20543 1
   21279    20542    20574 1
   21280    20542    20575 1
   21281    20543    20544 1
   21282    20543    20576 1
   21283    20543    20577 1
   21284    20544    20545 1
   21285    20544    20578 1
   21286    20544    20579 1
   21287    20545    20546 1
   21288    20545    20580 1
   21289    20545    20581 1
   21290    20546    20547 1
   21291    20546    20582 1
   21292    20546    20583 1
   21293    20547    20548 1
   21294    20547    20584 1
   21295    20547    20585 1
   21296    20548    20549 1
   21297    20548    20586 1
   21298    20548    20587 1
   21299    20549    20588 1
   21300    20549    20589 1
   21301    20549    20590 1
   21302    20591    20592 1
   21303    20591    20598 1
   21304    20591    20614 1
   21305    20591    20675 1
   21306    20592    20593 1
   21307    20592    20596 1
   21308    20593    20594 1
   21309    20593    20597 1
   21310    20594    20595 1
   21311    20595    20596 1
   21312    20596    20602 1
   21313    20597    20598 1
   21314    20597    20601 1
   21315    20598    20599 1
   21316    20599    20600 1
   21317    20599    20603 1
   21318    20600    20601 1
   21319    20600    20606 1
   21320    20604    20605 1
   21321    20604    20612 1
   21322    20605    20606 1
   21323    20605    20613 1
   21324    20606    20607 1
   21325    20607    20608 1
   21326    20607    20611 1
   21327    20608    20609 1
   21328    20609    20610 1
   21329    20610    20611 1
   21330    20611    20612 1
   21331    20612    20740 1
   21332    20614    20615 1
   21333    20614    20634 1
   21334    20614    20635 1
   21335    20615    20616 1
   21336    20615    20626 1
   21337    20615    20636 1
   21338    20616    20617 1
   21339    20616    20637 1
   21340    20616    20638 1
   21341    20617    20618 1
   21342    20617    20639 1
   21343    20617    20640 1
   21344    20618    20619 1
   21345    20618    20641 1
   21346    20618    20642 1
   21347    20619    20620 1
   21348    20619    20643 1
   21349    20619    20644 1
   21350    20620    20621 1
   21351    20620    20645 1
   21352    20620    20646 1
   21353    20621    20622 1
   21354    20621    20647 1
   21355    20621    20648 1
   21356    20622    20623 1
   21357    20622    20649 1
   21358    20622    20650 1
   21359    20623    20624 1
   21360    20623    20651 1
   21361    20623    20652 1
   21362    20624    20625 1
   21363    20624    20653 1
   21364    20624    20654 1
   21365    20625    20655 1
   21366    20625    20656 1
   21367    20625    20657 1
   21368    20626    20627 1
   21369    20626    20658 1
   21370    20626    20659 1
   21371    20627    20628 1
   21372    20627    20660 1
   21373    20627    20661 1
   21374    20628    20629 1
   21375    20628    20662 1
   21376    20628    20663 1
   21377    20629    20630 1
   21378    20629    20664 1
   21379    20629    20665 1
   21380    20630    20631 1
   21381    20630    20666 1
   21382    20630    20667 1
   21383    20631    20632 1
   21384    20631    20668 1
   21385    20631    20669 1
   21386    20632    20633 1
   21387    20632    20670 1
   21388    20632    20671 1
   21389    20633    20672 1
   21390    20633    20673 1
   21391    20633    20674 1
   21392    20675    20676 1
   21393    20675    20695 1
   21394    20675    20696 1
   21395    20676    20677 1
   21396    20676    20687 1
   21397    20676    20697 1
   21398    20677    20678 1
   21399    20677    20698 1
   21400    20677    20699 1
   21401    20678    20679 1
   21402    20678    20700 1
   21403    20678    20701 1
   21404    20679    20680 1
   21405    20679    20702 1
   21406    20679    20703 1
   21407    20680    20681 1
   21408    20680    20704 1
   21409    20680    20705 1
   21410    20681    20682 1
   21411    20681    20706 1
   21412    20681    20707 1
   21413    20682    20683 1
   21414    20682    20708 1
   21415    20682    20709 1
   21416    20683    20684 1
   21417    20683    20710 1
   21418    20683    20711 1
   21419    20684    20685 1
   21420    20684    20712 1
   21421    20684    20713 1
   21422    20685    20686 1
   21423    20685    20714 1
   21424    20685    20715 1
   21425    20686    20716 1
   21426    20686    20717 1
   21427    20686    20718 1
   21428    20687    20688 1
   21429    20687    20719 1
   21430    20687    20720 1
   21431    20688    20689 1
   21432    20688    20721 1
   21433    20688    20722 1
   21434    20689    20690 1
   21435    20689    20723 1
   21436    20689    20724 1
   21437    20690    20691 1
   21438    20690    20725 1
   21439    20690    20726 1
   21440    20691    20692 1
   21441    20691    20727 1
   21442    20691    20728 1
   21443    20692    20693 1
   21444    20692    20729 1
   21445    20692    20730 1
   21446    20693    20694 1
   21447    20693    20731 1
   21448    20693    20732 1
   21449    20694    20733 1
   21450    20694    20734 1
   21451    20694    20735 1
   21452    20736    20737 1
   21453    20736    20743 1
   21454    20736    20759 1
   21455    20736    20820 1
   21456    20737    20738 1
   21457    20737    20741 1
   21458    20738    20739 1
   21459    20738    20742 1
   21460    20739    20740 1
   21461    20740    20741 1
   21462    20741    20747 1
   21463    20742    20743 1
   21464    20742    20746 1
   21465    20743    20744 1
   21466    20744    20745 1
   21467    20744    20748 1
   21468    20745    20746 1
   21469    20745    20751 1
   21470    20749    20750 1
   21471    20749    20757 1
   21472    20750    20751 1
   21473    20750    20758 1
   21474    20751    20752 1
   21475    20752    20753 1
   21476    20752    20756 1
   21477    20753    20754 1
   21478    20754    20755 1
   21479    20755    20756 1
   21480    20756    20757 1
   21481    20757    20885 1
   21482    20759    20760 1
   21483    20759    20779 1
   21484    20759    20780 1
   21485    20760    20761 1
   21486    20760    20771 1
   21487    20760    20781 1
   21488    20761    20762 1
   21489    20761    20782 1
   21490    20761    20783 1
   21491    20762    20763 1
   21492    20762    20784 1
   21493    20762    20785 1
   21494    20763    20764 1
   21495    20763    20786 1
   21496    20763    20787 1
   21497    20764    20765 1
   21498    20764    20788 1
   21499    20764    20789 1
   21500    20765    20766 1
   21501    20765    20790 1
   21502    20765    20791 1
   21503    20766    20767 1
   21504    20766    20792 1
   21505    20766    20793 1
   21506    20767    20768 1
   21507    20767    20794 1
   21508    20767    20795 1
   21509    20768    20769 1
   21510    20768    20796 1
   21511    20768    20797 1
   21512    20769    20770 1
   21513    20769    20798 1
   21514    20769    20799 1
   21515    20770    20800 1
   21516    20770    20801 1
   21517    20770    20802 1
   21518    20771    20772 1
   21519    20771    20803 1
   21520    20771    20804 1
   21521    20772    20773 1
   21522    20772    20805 1
   21523    20772    20806 1
   21524    20773    20774 1
   21525    20773    20807 1
   21526    20773    20808 1
   21527    20774    20775 1
   21528    20774    20809 1
   21529    20774    20810 1
   21530    20775    20776 1
   21531    20775    20811 1
   21532    20775    20812 1
   21533    20776    20777 1
   21534    20776    20813 1
   21535    20776    20814 1
   21536    20777    20778 1
   21537    20777    20815 1
   21538    20777    20816 1
   21539    20778    20817 1
   21540    20778    20818 1
   21541    20778    20819 1
   21542    20820    20821 1
   21543    20820    20840 1
   21544    20820    20841 1
   21545    20821    20822 1
   21546    20821    20832 1
   21547    20821    20842 1
   21548    20822    20823 1
   21549    20822    20843 1
   21550    20822    20844 1
   21551    20823    20824 1
   21552    20823    20845 1
   21553    20823    20846 1
   21554    20824    20825 1
   21555    20824    20847 1
   21556    20824    20848 1
   21557    20825    20826 1
   21558    20825    20849 1
   21559    20825    20850 1
   21560    20826    20827 1
   21561    20826    20851 1
   21562    20826    20852 1
   21563    20827    20828 1
   21564    20827    20853 1
   21565    20827    20854 1
   21566    20828    20829 1
   21567    20828    20855 1
   21568    20828    20856 1
   21569    20829    20830 1
   21570    20829    20857 1
   21571    20829    20858 1
   21572    20830    20831 1
   21573    20830    20859 1
   21574    20830    20860 1
   21575    20831    20861 1
   21576    20831    20862 1
   21577    20831    20863 1
   21578    20832    20833 1
   21579    20832    20864 1
   21580    20832    20865 1
   21581    20833    20834 1
   21582    20833    20866 1
   21583    20833    20867 1
   21584    20834    20835 1
   21585    20834    20868 1
   21586    20834    20869 1
   21587    20835    20836 1
   21588    20835    20870 1
   21589    20835    20871 1
   21590    20836    20837 1
   21591    20836    20872 1
   21592    20836    20873 1
   21593    20837    20838 1
   21594    20837    20874 1
   21595    20837    20875 1
   21596    20838    20839 1
   21597    20838    20876 1
   21598    20838    20877 1
   21599    20839    20878 1
   21600    20839    20879 1
   21601    20839    20880 1
   21602    20881    20882 1
   21603    20881    20888 1
   21604    20881    20904 1
   21605    20881    20965 1
   21606    20882    20883 1
   21607    20882    20886 1
   21608    20883    20884 1
   21609    20883    20887 1
   21610    20884    20885 1
   21611    20885    20886 1
   21612    20886    20892 1
   21613    20887    20888 1
   21614    20887    20891 1
   21615    20888    20889 1
   21616    20889    20890 1
   21617    20889    20893 1
   21618    20890    20891 1
   21619    20890    20896 1
   21620    20894    20895 1
   21621    20894    20902 1
   21622    20895    20896 1
   21623    20895    20903 1
   21624    20896    20897 1
   21625    20897    20898 1
   21626    20897    20901 1
   21627    20898    20899 1
   21628    20899    20900 1
   21629    20900    20901 1
   21630    20901    20902 1
   21631    20902    21030 1
   21632    20904    20905 1
   21633    20904    20924 1
   21634    20904    20925 1
   21635    20905    20906 1
   21636    20905    20916 1
   21637    20905    20926 1
   21638    20906    20907 1
   21639    20906    20927 1
   21640    20906    20928 1
   21641    20907    20908 1
   21642    20907    20929 1
   21643    20907    20930 1
   21644    20908    20909 1
   21645    20908    20931 1
   21646    20908    20932 1
   21647    20909    20910 1
   21648    20909    20933 1
   21649    20909    20934 1
   21650    20910    20911 1
   21651    20910    20935 1
   21652    20910    20936 1
   21653    20911    20912 1
   21654    20911    20937 1
   21655    20911    20938 1
   21656    20912    20913 1
   21657    20912    20939 1
   21658    20912    20940 1
   21659    20913    20914 1
   21660    20913    20941 1
   21661    20913    20942 1
   21662    20914    20915 1
   21663    20914    20943 1
   21664    20914    20944 1
   21665    20915    20945 1
   21666    20915    20946 1
   21667    20915    20947 1
   21668    20916    20917 1
   21669    20916    20948 1
   21670    20916    20949 1
   21671    20917    20918 1
   21672    20917    20950 1
   21673    20917    20951 1
   21674    20918    20919 1
   21675    20918    20952 1
   21676    20918    20953 1
   21677    20919    20920 1
   21678    20919    20954 1
   21679    20919    20955 1
   21680    20920    20921 1
   21681    20920    20956 1
   21682    20920    20957 1
   21683    20921    20922 1
   21684    20921    20958 1
   21685    20921    20959 1
   21686    20922    20923 1
   21687    20922    20960 1
   21688    20922    20961 1
   21689    20923    20962 1
   21690    20923    20963 1
   21691    20923    20964 1
   21692    20965    20966 1
   21693    20965    20985 1
   21694    20965    20986 1
   21695    20966    20967 1
   21696    20966    20977 1
   21697    20966    20987 1
   21698    20967    20968 1
   21699    20967    20988 1
   21700    20967    20989 1
   21701    20968    20969 1
   21702    20968    20990 1
   21703    20968    20991 1
   21704    20969    20970 1
   21705    20969    20992 1
   21706    20969    20993 1
   21707    20970    20971 1
   21708    20970    20994 1
   21709    20970    20995 1
   21710    20971    20972 1
   21711    20971    20996 1
   21712    20971    20997 1
   21713    20972    20973 1
   21714    20972    20998 1
   21715    20972    20999 1
   21716    20973    20974 1
   21717    20973    21000 1
   21718    20973    21001 1
   21719    20974    20975 1
   21720    20974    21002 1
   21721    20974    21003 1
   21722    20975    20976 1
   21723    20975    21004 1
   21724    20975    21005 1
   21725    20976    21006 1
   21726    20976    21007 1
   21727    20976    21008 1
   21728    20977    20978 1
   21729    20977    21009 1
   21730    20977    21010 1
   21731    20978    20979 1
   21732    20978    21011 1
   21733    20978    21012 1
   21734    20979    20980 1
   21735    20979    21013 1
   21736    20979    21014 1
   21737    20980    20981 1
   21738    20980    21015 1
   21739    20980    21016 1
   21740    20981    20982 1
   21741    20981    21017 1
   21742    20981    21018 1
   21743    20982    20983 1
   21744    20982    21019 1
   21745    20982    21020 1
   21746    20983    20984 1
   21747    20983    21021 1
   21748    20983    21022 1
   21749    20984    21023 1
   21750    20984    21024 1
   21751    20984    21025 1
   21752    21026    21027 1
   21753    21026    21033 1
   21754    21026    21049 1
   21755    21026    21110 1
   21756    21027    21028 1
   21757    21027    21031 1
   21758    21028    21029 1
   21759    21028    21032 1
   21760    21029    21030 1
   21761    21030    21031 1
   21762    21031    21037 1
   21763    21032    21033 1
   21764    21032    21036 1
   21765    21033    21034 1
   21766    21034    21035 1
   21767    21034    21038 1
   21768    21035    21036 1
   21769    21035    21041 1
   21770    21039    21040 1
   21771    21039    21047 1
   21772    21040    21041 1
   21773    21040    21048 1
   21774    21041    21042 1
   21775    21042    21043 1
   21776    21042    21046 1
   21777    21043    21044 1
   21778    21044    21045 1
   21779    21045    21046 1
   21780    21046    21047 1
   21781    21047    21175 1
   21782    21049    21050 1
   21783    21049    21069 1
   21784    21049    21070 1
   21785    21050    21051 1
   21786    21050    21061 1
   21787    21050    21071 1
   21788    21051    21052 1
   21789    21051    21072 1
   21790    21051    21073 1
   21791    21052    21053 1
   21792    21052    21074 1
   21793    21052    21075 1
   21794    21053    21054 1
   21795    21053    21076 1
   21796    21053    21077 1
   21797    21054    21055 1
   21798    21054    21078 1
   21799    21054    21079 1
   21800    21055    21056 1
   21801    21055    21080 1
   21802    21055    21081 1
   21803    21056    21057 1
   21804    21056    21082 1
   21805    21056    21083 1
   21806    21057    21058 1
   21807    21057    21084 1
   21808    21057    21085 1
   21809    21058    21059 1
   21810    21058    21086 1
   21811    21058    21087 1
   21812    21059    21060 1
   21813    21059    21088 1
   21814    21059    21089 1
   21815    21060    21090 1
   21816    21060    21091 1
   21817    21060    21092 1
   21818    21061    21062 1
   21819    21061    21093 1
   21820    21061    21094 1
   21821    21062    21063 1
   21822    21062    21095 1
   21823    21062    21096 1
   21824    21063    21064 1
   21825    21063    21097 1
   21826    21063    21098 1
   21827    21064    21065 1
   21828    21064    21099 1
   21829    21064    21100 1
   21830    21065    21066 1
   21831    21065    21101 1
   21832    21065    21102 1
   21833    21066    21067 1
   21834    21066    21103 1
   21835    21066    21104 1
   21836    21067    21068 1
   21837    21067    21105 1
   21838    21067    21106 1
   21839    21068    21107 1
   21840    21068    21108 1
   21841    21068    21109 1
   21842    21110    21111 1
   21843    21110    21130 1
   21844    21110    21131 1
   21845    21111    21112 1
   21846    21111    21122 1
   21847    21111    21132 1
   21848    21112    21113 1
   21849    21112    21133 1
   21850    21112    21134 1
   21851    21113    21114 1
   21852    21113    21135 1
   21853    21113    21136 1
   21854    21114    21115 1
   21855    21114    21137 1
   21856    21114    21138 1
   21857    21115    21116 1
   21858    21115    21139 1
   21859    21115    21140 1
   21860    21116    21117 1
   21861    21116    21141 1
   21862    21116    21142 1
   21863    21117    21118 1
   21864    21117    21143 1
   21865    21117    21144 1
   21866    21118    21119 1
   21867    21118    21145 1
   21868    21118    21146 1
   21869    21119    21120 1
   21870    21119    21147 1
   21871    21119    21148 1
   21872    21120    21121 1
   21873    21120    21149 1
   21874    21120    21150 1
   21875    21121    21151 1
   21876    21121    21152 1
   21877    21121    21153 1
   21878    21122    21123 1
   21879    21122    21154 1
   21880    21122    21155 1
   21881    21123    21124 1
   21882    21123    21156 1
   21883    21123    21157 1
   21884    21124    21125 1
   21885    21124    21158 1
   21886    21124    21159 1
   21887    21125    21126 1
   21888    21125    21160 1
   21889    21125    21161 1
   21890    21126    21127 1
   21891    21126    21162 1
   21892    21126    21163 1
   21893    21127    21128 1
   21894    21127    21164 1
   21895    21127    21165 1
   21896    21128    21129 1
   21897    21128    21166 1
   21898    21128    21167 1
   21899    21129    21168 1
   21900    21129    21169 1
   21901    21129    21170 1
   21902    21171    21172 1
   21903    21171    21178 1
   21904    21171    21194 1
   21905    21171    21255 1
   21906    21172    21173 1
   21907    21172    21176 1
   21908    21173    21174 1
   21909    21173    21177 1
   21910    21174    21175 1
   21911    21175    21176 1
   21912    21176    21182 1
   21913    21177    21178 1
   21914    21177    21181 1
   21915    21178    21179 1
   21916    21179    21180 1
   21917    21179    21183 1
   21918    21180    21181 1
   21919    21180    21186 1
   21920    21184    21185 1
   21921    21184    21192 1
   21922    21185    21186 1
   21923    21185    21193 1
   21924    21186    21187 1
   21925    21187    21188 1
   21926    21187    21191 1
   21927    21188    21189 1
   21928    21189    21190 1
   21929    21190    21191 1
   21930    21191    21192 1
   21931    21192    21320 1
   21932    21194    21195 1
   21933    21194    21214 1
   21934    21194    21215 1
   21935    21195    21196 1
   21936    21195    21206 1
   21937    21195    21216 1
   21938    21196    21197 1
   21939    21196    21217 1
   21940    21196    21218 1
   21941    21197    21198 1
   21942    21197    21219 1
   21943    21197    21220 1
   21944    21198    21199 1
   21945    21198    21221 1
   21946    21198    21222 1
   21947    21199    21200 1
   21948    21199    21223 1
   21949    21199    21224 1
   21950    21200    21201 1
   21951    21200    21225 1
   21952    21200    21226 1
   21953    21201    21202 1
   21954    21201    21227 1
   21955    21201    21228 1
   21956    21202    21203 1
   21957    21202    21229 1
   21958    21202    21230 1
   21959    21203    21204 1
   21960    21203    21231 1
   21961    21203    21232 1
   21962    21204    21205 1
   21963    21204    21233 1
   21964    21204    21234 1
   21965    21205    21235 1
   21966    21205    21236 1
   21967    21205    21237 1
   21968    21206    21207 1
   21969    21206    21238 1
   21970    21206    21239 1
   21971    21207    21208 1
   21972    21207    21240 1
   21973    21207    21241 1
   21974    21208    21209 1
   21975    21208    21242 1
   21976    21208    21243 1
   21977    21209    21210 1
   21978    21209    21244 1
   21979    21209    21245 1
   21980    21210    21211 1
   21981    21210    21246 1
   21982    21210    21247 1
   21983    21211    21212 1
   21984    21211    21248 1
   21985    21211    21249 1
   21986    21212    21213 1
   21987    21212    21250 1
   21988    21212    21251 1
   21989    21213    21252 1
   21990    21213    21253 1
   21991    21213    21254 1
   21992    21255    21256 1
   21993    21255    21275 1
   21994    21255    21276 1
   21995    21256    21257 1
   21996    21256    21267 1
   21997    21256    21277 1
   21998    21257    21258 1
   21999    21257    21278 1
   22000    21257    21279 1
   22001    21258    21259 1
   22002    21258    21280 1
   22003    21258    21281 1
   22004    21259    21260 1
   22005    21259    21282 1
   22006    21259    21283 1
   22007    21260    21261 1
   22008    21260    21284 1
   22009    21260    21285 1
   22010    21261    21262 1
   22011    21261    21286 1
   22012    21261    21287 1
   22013    21262    21263 1
   22014    21262    21288 1
   22015    21262    21289 1
   22016    21263    21264 1
   22017    21263    21290 1
   22018    21263    21291 1
   22019    21264    21265 1
   22020    21264    21292 1
   22021    21264    21293 1
   22022    21265    21266 1
   22023    21265    21294 1
   22024    21265    21295 1
   22025    21266    21296 1
   22026    21266    21297 1
   22027    21266    21298 1
   22028    21267    21268 1
   22029    21267    21299 1
   22030    21267    21300 1
   22031    21268    21269 1
   22032    21268    21301 1
   22033    21268    21302 1
   22034    21269    21270 1
   22035    21269    21303 1
   22036    21269    21304 1
   22037    21270    21271 1
   22038    21270    21305 1
   22039    21270    21306 1
   22040    21271    21272 1
   22041    21271    21307 1
   22042    21271    21308 1
   22043    21272    21273 1
   22044    21272    21309 1
   22045    21272    21310 1
   22046    21273    21274 1
   22047    21273    21311 1
   22048    21273    21312 1
   22049    21274    21313 1
   22050    21274    21314 1
   22051    21274    21315 1
   22052    21316    21317 1
   22053    21316    21323 1
   22054    21316    21339 1
   22055    21316    21400 1
   22056    21317    21318 1
   22057    21317    21321 1
   22058    21318    21319 1
   22059    21318    21322 1
   22060    21319    21320 1
   22061    21320    21321 1
   22062    21321    21327 1
   22063    21322    21323 1
   22064    21322    21326 1
   22065    21323    21324 1
   22066    21324    21325 1
   22067    21324    21328 1
   22068    21325    21326 1
   22069    21325    21331 1
   22070    21329    21330 1
   22071    21329    21337 1
   22072    21330    21331 1
   22073    21330    21338 1
   22074    21331    21332 1
   22075    21332    21333 1
   22076    21332    21336 1
   22077    21333    21334 1
   22078    21334    21335 1
   22079    21335    21336 1
   22080    21336    21337 1
   22081    21337    21465 1
   22082    21339    21340 1
   22083    21339    21359 1
   22084    21339    21360 1
   22085    21340    21341 1
   22086    21340    21351 1
   22087    21340    21361 1
   22088    21341    21342 1
   22089    21341    21362 1
   22090    21341    21363 1
   22091    21342    21343 1
   22092    21342    21364 1
   22093    21342    21365 1
   22094    21343    21344 1
   22095    21343    21366 1
   22096    21343    21367 1
   22097    21344    21345 1
   22098    21344    21368 1
   22099    21344    21369 1
   22100    21345    21346 1
   22101    21345    21370 1
   22102    21345    21371 1
   22103    21346    21347 1
   22104    21346    21372 1
   22105    21346    21373 1
   22106    21347    21348 1
   22107    21347    21374 1
   22108    21347    21375 1
   22109    21348    21349 1
   22110    21348    21376 1
   22111    21348    21377 1
   22112    21349    21350 1
   22113    21349    21378 1
   22114    21349    21379 1
   22115    21350    21380 1
   22116    21350    21381 1
   22117    21350    21382 1
   22118    21351    21352 1
   22119    21351    21383 1
   22120    21351    21384 1
   22121    21352    21353 1
   22122    21352    21385 1
   22123    21352    21386 1
   22124    21353    21354 1
   22125    21353    21387 1
   22126    21353    21388 1
   22127    21354    21355 1
   22128    21354    21389 1
   22129    21354    21390 1
   22130    21355    21356 1
   22131    21355    21391 1
   22132    21355    21392 1
   22133    21356    21357 1
   22134    21356    21393 1
   22135    21356    21394 1
   22136    21357    21358 1
   22137    21357    21395 1
   22138    21357    21396 1
   22139    21358    21397 1
   22140    21358    21398 1
   22141    21358    21399 1
   22142    21400    21401 1
   22143    21400    21420 1
   22144    21400    21421 1
   22145    21401    21402 1
   22146    21401    21412 1
   22147    21401    21422 1
   22148    21402    21403 1
   22149    21402    21423 1
   22150    21402    21424 1
   22151    21403    21404 1
   22152    21403    21425 1
   22153    21403    21426 1
   22154    21404    21405 1
   22155    21404    21427 1
   22156    21404    21428 1
   22157    21405    21406 1
   22158    21405    21429 1
   22159    21405    21430 1
   22160    21406    21407 1
   22161    21406    21431 1
   22162    21406    21432 1
   22163    21407    21408 1
   22164    21407    21433 1
   22165    21407    21434 1
   22166    21408    21409 1
   22167    21408    21435 1
   22168    21408    21436 1
   22169    21409    21410 1
   22170    21409    21437 1
   22171    21409    21438 1
   22172    21410    21411 1
   22173    21410    21439 1
   22174    21410    21440 1
   22175    21411    21441 1
   22176    21411    21442 1
   22177    21411    21443 1
   22178    21412    21413 1
   22179    21412    21444 1
   22180    21412    21445 1
   22181    21413    21414 1
   22182    21413    21446 1
   22183    21413    21447 1
   22184    21414    21415 1
   22185    21414    21448 1
   22186    21414    21449 1
   22187    21415    21416 1
   22188    21415    21450 1
   22189    21415    21451 1
   22190    21416    21417 1
   22191    21416    21452 1
   22192    21416    21453 1
   22193    21417    21418 1
   22194    21417    21454 1
   22195    21417    21455 1
   22196    21418    21419 1
   22197    21418    21456 1
   22198    21418    21457 1
   22199    21419    21458 1
   22200    21419    21459 1
   22201    21419    21460 1
   22202    21461    21462 1
   22203    21461    21468 1
   22204    21461    21484 1
   22205    21461    21545 1
   22206    21462    21463 1
   22207    21462    21466 1
   22208    21463    21464 1
   22209    21463    21467 1
   22210    21464    21465 1
   22211    21465    21466 1
   22212    21466    21472 1
   22213    21467    21468 1
   22214    21467    21471 1
   22215    21468    21469 1
   22216    21469    21470 1
   22217    21469    21473 1
   22218    21470    21471 1
   22219    21470    21476 1
   22220    21474    21475 1
   22221    21474    21482 1
   22222    21475    21476 1
   22223    21475    21483 1
   22224    21476    21477 1
   22225    21477    21478 1
   22226    21477    21481 1
   22227    21478    21479 1
   22228    21479    21480 1
   22229    21480    21481 1
   22230    21481    21482 1
   22231    21482    21610 1
   22232    21484    21485 1
   22233    21484    21504 1
   22234    21484    21505 1
   22235    21485    21486 1
   22236    21485    21496 1
   22237    21485    21506 1
   22238    21486    21487 1
   22239    21486    21507 1
   22240    21486    21508 1
   22241    21487    21488 1
   22242    21487    21509 1
   22243    21487    21510 1
   22244    21488    21489 1
   22245    21488    21511 1
   22246    21488    21512 1
   22247    21489    21490 1
   22248    21489    21513 1
   22249    21489    21514 1
   22250    21490    21491 1
   22251    21490    21515 1
   22252    21490    21516 1
   22253    21491    21492 1
   22254    21491    21517 1
   22255    21491    21518 1
   22256    21492    21493 1
   22257    21492    21519 1
   22258    21492    21520 1
   22259    21493    21494 1
   22260    21493    21521 1
   22261    21493    21522 1
   22262    21494    21495 1
   22263    21494    21523 1
   22264    21494    21524 1
   22265    21495    21525 1
   22266    21495    21526 1
   22267    21495    21527 1
   22268    21496    21497 1
   22269    21496    21528 1
   22270    21496    21529 1
   22271    21497    21498 1
   22272    21497    21530 1
   22273    21497    21531 1
   22274    21498    21499 1
   22275    21498    21532 1
   22276    21498    21533 1
   22277    21499    21500 1
   22278    21499    21534 1
   22279    21499    21535 1
   22280    21500    21501 1
   22281    21500    21536 1
   22282    21500    21537 1
   22283    21501    21502 1
   22284    21501    21538 1
   22285    21501    21539 1
   22286    21502    21503 1
   22287    21502    21540 1
   22288    21502    21541 1
   22289    21503    21542 1
   22290    21503    21543 1
   22291    21503    21544 1
   22292    21545    21546 1
   22293    21545    21565 1
   22294    21545    21566 1
   22295    21546    21547 1
   22296    21546    21557 1
   22297    21546    21567 1
   22298    21547    21548 1
   22299    21547    21568 1
   22300    21547    21569 1
   22301    21548    21549 1
   22302    21548    21570 1
   22303    21548    21571 1
   22304    21549    21550 1
   22305    21549    21572 1
   22306    21549    21573 1
   22307    21550    21551 1
   22308    21550    21574 1
   22309    21550    21575 1
   22310    21551    21552 1
   22311    21551    21576 1
   22312    21551    21577 1
   22313    21552    21553 1
   22314    21552    21578 1
   22315    21552    21579 1
   22316    21553    21554 1
   22317    21553    21580 1
   22318    21553    21581 1
   22319    21554    21555 1
   22320    21554    21582 1
   22321    21554    21583 1
   22322    21555    21556 1
   22323    21555    21584 1
   22324    21555    21585 1
   22325    21556    21586 1
   22326    21556    21587 1
   22327    21556    21588 1
   22328    21557    21558 1
   22329    21557    21589 1
   22330    21557    21590 1
   22331    21558    21559 1
   22332    21558    21591 1
   22333    21558    21592 1
   22334    21559    21560 1
   22335    21559    21593 1
   22336    21559    21594 1
   22337    21560    21561 1
   22338    21560    21595 1
   22339    21560    21596 1
   22340    21561    21562 1
   22341    21561    21597 1
   22342    21561    21598 1
   22343    21562    21563 1
   22344    21562    21599 1
   22345    21562    21600 1
   22346    21563    21564 1
   22347    21563    21601 1
   22348    21563    21602 1
   22349    21564    21603 1
   22350    21564    21604 1
   22351    21564    21605 1
   22352    21606    21607 1
   22353    21606    21613 1
   22354    21606    21629 1
   22355    21606    21690 1
   22356    21607    21608 1
   22357    21607    21611 1
   22358    21608    21609 1
   22359    21608    21612 1
   22360    21609    21610 1
   22361    21610    21611 1
   22362    21611    21617 1
   22363    21612    21613 1
   22364    21612    21616 1
   22365    21613    21614 1
   22366    21614    21615 1
   22367    21614    21618 1
   22368    21615    21616 1
   22369    21615    21621 1
   22370    21619    21620 1
   22371    21619    21627 1
   22372    21620    21621 1
   22373    21620    21628 1
   22374    21621    21622 1
   22375    21622    21623 1
   22376    21622    21626 1
   22377    21623    21624 1
   22378    21624    21625 1
   22379    21625    21626 1
   22380    21626    21627 1
   22381    21627    21755 1
   22382    21629    21630 1
   22383    21629    21649 1
   22384    21629    21650 1
   22385    21630    21631 1
   22386    21630    21641 1
   22387    21630    21651 1
   22388    21631    21632 1
   22389    21631    21652 1
   22390    21631    21653 1
   22391    21632    21633 1
   22392    21632    21654 1
   22393    21632    21655 1
   22394    21633    21634 1
   22395    21633    21656 1
   22396    21633    21657 1
   22397    21634    21635 1
   22398    21634    21658 1
   22399    21634    21659 1
   22400    21635    21636 1
   22401    21635    21660 1
   22402    21635    21661 1
   22403    21636    21637 1
   22404    21636    21662 1
   22405    21636    21663 1
   22406    21637    21638 1
   22407    21637    21664 1
   22408    21637    21665 1
   22409    21638    21639 1
   22410    21638    21666 1
   22411    21638    21667 1
   22412    21639    21640 1
   22413    21639    21668 1
   22414    21639    21669 1
   22415    21640    21670 1
   22416    21640    21671 1
   22417    21640    21672 1
   22418    21641    21642 1
   22419    21641    21673 1
   22420    21641    21674 1
   22421    21642    21643 1
   22422    21642    21675 1
   22423    21642    21676 1
   22424    21643    21644 1
   22425    21643    21677 1
   22426    21643    21678 1
   22427    21644    21645 1
   22428    21644    21679 1
   22429    21644    21680 1
   22430    21645    21646 1
   22431    21645    21681 1
   22432    21645    21682 1
   22433    21646    21647 1
   22434    21646    21683 1
   22435    21646    21684 1
   22436    21647    21648 1
   22437    21647    21685 1
   22438    21647    21686 1
   22439    21648    21687 1
   22440    21648    21688 1
   22441    21648    21689 1
   22442    21690    21691 1
   22443    21690    21710 1
   22444    21690    21711 1
   22445    21691    21692 1
   22446    21691    21702 1
   22447    21691    21712 1
   22448    21692    21693 1
   22449    21692    21713 1
   22450    21692    21714 1
   22451    21693    21694 1
   22452    21693    21715 1
   22453    21693    21716 1
   22454    21694    21695 1
   22455    21694    21717 1
   22456    21694    21718 1
   22457    21695    21696 1
   22458    21695    21719 1
   22459    21695    21720 1
   22460    21696    21697 1
   22461    21696    21721 1
   22462    21696    21722 1
   22463    21697    21698 1
   22464    21697    21723 1
   22465    21697    21724 1
   22466    21698    21699 1
   22467    21698    21725 1
   22468    21698    21726 1
   22469    21699    21700 1
   22470    21699    21727 1
   22471    21699    21728 1
   22472    21700    21701 1
   22473    21700    21729 1
   22474    21700    21730 1
   22475    21701    21731 1
   22476    21701    21732 1
   22477    21701    21733 1
   22478    21702    21703 1
   22479    21702    21734 1
   22480    21702    21735 1
   22481    21703    21704 1
   22482    21703    21736 1
   22483    21703    21737 1
   22484    21704    21705 1
   22485    21704    21738 1
   22486    21704    21739 1
   22487    21705    21706 1
   22488    21705    21740 1
   22489    21705    21741 1
   22490    21706    21707 1
   22491    21706    21742 1
   22492    21706    21743 1
   22493    21707    21708 1
   22494    21707    21744 1
   22495    21707    21745 1
   22496    21708    21709 1
   22497    21708    21746 1
   22498    21708    21747 1
   22499    21709    21748 1
   22500    21709    21749 1
   22501    21709    21750 1
   22502    21751    21752 1
   22503    21751    21758 1
   22504    21751    21774 1
   22505    21751    21835 1
   22506    21752    21753 1
   22507    21752    21756 1
   22508    21753    21754 1
   22509    21753    21757 1
   22510    21754    21755 1
   22511    21755    21756 1
   22512    21756    21762 1
   22513    21757    21758 1
   22514    21757    21761 1
   22515    21758    21759 1
   22516    21759    21760 1
   22517    21759    21763 1
   22518    21760    21761 1
   22519    21760    21766 1
   22520    21764    21765 1
   22521    21764    21772 1
   22522    21765    21766 1
   22523    21765    21773 1
   22524    21766    21767 1
   22525    21767    21768 1
   22526    21767    21771 1
   22527    21768    21769 1
   22528    21769    21770 1
   22529    21770    21771 1
   22530    21771    21772 1
   22531    21772    21900 1
   22532    21774    21775 1
   22533    21774    21794 1
   22534    21774    21795 1
   22535    21775    21776 1
   22536    21775    21786 1
   22537    21775    21796 1
   22538    21776    21777 1
   22539    21776    21797 1
   22540    21776    21798 1
   22541    21777    21778 1
   22542    21777    21799 1
   22543    21777    21800 1
   22544    21778    21779 1
   22545    21778    21801 1
   22546    21778    21802 1
   22547    21779    21780 1
   22548    21779    21803 1
   22549    21779    21804 1
   22550    21780    21781 1
   22551    21780    21805 1
   22552    21780    21806 1
   22553    21781    21782 1
   22554    21781    21807 1
   22555    21781    21808 1
   22556    21782    21783 1
   22557    21782    21809 1
   22558    21782    21810 1
   22559    21783    21784 1
   22560    21783    21811 1
   22561    21783    21812 1
   22562    21784    21785 1
   22563    21784    21813 1
   22564    21784    21814 1
   22565    21785    21815 1
   22566    21785    21816 1
   22567    21785    21817 1
   22568    21786    21787 1
   22569    21786    21818 1
   22570    21786    21819 1
   22571    21787    21788 1
   22572    21787    21820 1
   22573    21787    21821 1
   22574    21788    21789 1
   22575    21788    21822 1
   22576    21788    21823 1
   22577    21789    21790 1
   22578    21789    21824 1
   22579    21789    21825 1
   22580    21790    21791 1
   22581    21790    21826 1
   22582    21790    21827 1
   22583    21791    21792 1
   22584    21791    21828 1
   22585    21791    21829 1
   22586    21792    21793 1
   22587    21792    21830 1
   22588    21792    21831 1
   22589    21793    21832 1
   22590    21793    21833 1
   22591    21793    21834 1
   22592    21835    21836 1
   22593    21835    21855 1
   22594    21835    21856 1
   22595    21836    21837 1
   22596    21836    21847 1
   22597    21836    21857 1
   22598    21837    21838 1
   22599    21837    21858 1
   22600    21837    21859 1
   22601    21838    21839 1
   22602    21838    21860 1
   22603    21838    21861 1
   22604    21839    21840 1
   22605    21839    21862 1
   22606    21839    21863 1
   22607    21840    21841 1
   22608    21840    21864 1
   22609    21840    21865 1
   22610    21841    21842 1
   22611    21841    21866 1
   22612    21841    21867 1
   22613    21842    21843 1
   22614    21842    21868 1
   22615    21842    21869 1
   22616    21843    21844 1
   22617    21843    21870 1
   22618    21843    21871 1
   22619    21844    21845 1
   22620    21844    21872 1
   22621    21844    21873 1
   22622    21845    21846 1
   22623    21845    21874 1
   22624    21845    21875 1
   22625    21846    21876 1
   22626    21846    21877 1
   22627    21846    21878 1
   22628    21847    21848 1
   22629    21847    21879 1
   22630    21847    21880 1
   22631    21848    21849 1
   22632    21848    21881 1
   22633    21848    21882 1
   22634    21849    21850 1
   22635    21849    21883 1
   22636    21849    21884 1
   22637    21850    21851 1
   22638    21850    21885 1
   22639    21850    21886 1
   22640    21851    21852 1
   22641    21851    21887 1
   22642    21851    21888 1
   22643    21852    21853 1
   22644    21852    21889 1
   22645    21852    21890 1
   22646    21853    21854 1
   22647    21853    21891 1
   22648    21853    21892 1
   22649    21854    21893 1
   22650    21854    21894 1
   22651    21854    21895 1
   22652    21896    21897 1
   22653    21896    21903 1
   22654    21896    21919 1
   22655    21896    21980 1
   22656    21897    21898 1
   22657    21897    21901 1
   22658    21898    21899 1
   22659    21898    21902 1
   22660    21899    21900 1
   22661    21900    21901 1
   22662    21901    21907 1
   22663    21902    21903 1
   22664    21902    21906 1
   22665    21903    21904 1
   22666    21904    21905 1
   22667    21904    21908 1
   22668    21905    21906 1
   22669    21905    21911 1
   22670    21909    21910 1
   22671    21909    21917 1
   22672    21910    21911 1
   22673    21910    21918 1
   22674    21911    21912 1
   22675    21912    21913 1
   22676    21912    21916 1
   22677    21913    21914 1
   22678    21914    21915 1
   22679    21915    21916 1
   22680    21916    21917 1
   22681    21917    22045 1
   22682    21919    21920 1
   22683    21919    21939 1
   22684    21919    21940 1
   22685    21920    21921 1
   22686    21920    21931 1
   22687    21920    21941 1
   22688    21921    21922 1
   22689    21921    21942 1
   22690    21921    21943 1
   22691    21922    21923 1
   22692    21922    21944 1
   22693    21922    21945 1
   22694    21923    21924 1
   22695    21923    21946 1
   22696    21923    21947 1
   22697    21924    21925 1
   22698    21924    21948 1
   22699    21924    21949 1
   22700    21925    21926 1
   22701    21925    21950 1
   22702    21925    21951 1
   22703    21926    21927 1
   22704    21926    21952 1
   22705    21926    21953 1
   22706    21927    21928 1
   22707    21927    21954 1
   22708    21927    21955 1
   22709    21928    21929 1
   22710    21928    21956 1
   22711    21928    21957 1
   22712    21929    21930 1
   22713    21929    21958 1
   22714    21929    21959 1
   22715    21930    21960 1
   22716    21930    21961 1
   22717    21930    21962 1
   22718    21931    21932 1
   22719    21931    21963 1
   22720    21931    21964 1
   22721    21932    21933 1
   22722    21932    21965 1
   22723    21932    21966 1
   22724    21933    21934 1
   22725    21933    21967 1
   22726    21933    21968 1
   22727    21934    21935 1
   22728    21934    21969 1
   22729    21934    21970 1
   22730    21935    21936 1
   22731    21935    21971 1
   22732    21935    21972 1
   22733    21936    21937 1
   22734    21936    21973 1
   22735    21936    21974 1
   22736    21937    21938 1
   22737    21937    21975 1
   22738    21937    21976 1
   22739    21938    21977 1
   22740    21938    21978 1
   22741    21938    21979 1
   22742    21980    21981 1
   22743    21980    22000 1
   22744    21980    22001 1
   22745    21981    21982 1
   22746    21981    21992 1
   22747    21981    22002 1
   22748    21982    21983 1
   22749    21982    22003 1
   22750    21982    22004 1
   22751    21983    21984 1
   22752    21983    22005 1
   22753    21983    22006 1
   22754    21984    21985 1
   22755    21984    22007 1
   22756    21984    22008 1
   22757    21985    21986 1
   22758    21985    22009 1
   22759    21985    22010 1
   22760    21986    21987 1
   22761    21986    22011 1
   22762    21986    22012 1
   22763    21987    21988 1
   22764    21987    22013 1
   22765    21987    22014 1
   22766    21988    21989 1
   22767    21988    22015 1
   22768    21988    22016 1
   22769    21989    21990 1
   22770    21989    22017 1
   22771    21989    22018 1
   22772    21990    21991 1
   22773    21990    22019 1
   22774    21990    22020 1
   22775    21991    22021 1
   22776    21991    22022 1
   22777    21991    22023 1
   22778    21992    21993 1
   22779    21992    22024 1
   22780    21992    22025 1
   22781    21993    21994 1
   22782    21993    22026 1
   22783    21993    22027 1
   22784    21994    21995 1
   22785    21994    22028 1
   22786    21994    22029 1
   22787    21995    21996 1
   22788    21995    22030 1
   22789    21995    22031 1
   22790    21996    21997 1
   22791    21996    22032 1
   22792    21996    22033 1
   22793    21997    21998 1
   22794    21997    22034 1
   22795    21997    22035 1
   22796    21998    21999 1
   22797    21998    22036 1
   22798    21998    22037 1
   22799    21999    22038 1
   22800    21999    22039 1
   22801    21999    22040 1
   22802    22041    22042 1
   22803    22041    22048 1
   22804    22041    22064 1
   22805    22041    22125 1
   22806    22042    22043 1
   22807    22042    22046 1
   22808    22043    22044 1
   22809    22043    22047 1
   22810    22044    22045 1
   22811    22045    22046 1
   22812    22046    22052 1
   22813    22047    22048 1
   22814    22047    22051 1
   22815    22048    22049 1
   22816    22049    22050 1
   22817    22049    22053 1
   22818    22050    22051 1
   22819    22050    22056 1
   22820    22054    22055 1
   22821    22054    22062 1
   22822    22055    22056 1
   22823    22055    22063 1
   22824    22056    22057 1
   22825    22057    22058 1
   22826    22057    22061 1
   22827    22058    22059 1
   22828    22059    22060 1
   22829    22060    22061 1
   22830    22061    22062 1
   22831    22062    22190 1
   22832    22064    22065 1
   22833    22064    22084 1
   22834    22064    22085 1
   22835    22065    22066 1
   22836    22065    22076 1
   22837    22065    22086 1
   22838    22066    22067 1
   22839    22066    22087 1
   22840    22066    22088 1
   22841    22067    22068 1
   22842    22067    22089 1
   22843    22067    22090 1
   22844    22068    22069 1
   22845    22068    22091 1
   22846    22068    22092 1
   22847    22069    22070 1
   22848    22069    22093 1
   22849    22069    22094 1
   22850    22070    22071 1
   22851    22070    22095 1
   22852    22070    22096 1
   22853    22071    22072 1
   22854    22071    22097 1
   22855    22071    22098 1
   22856    22072    22073 1
   22857    22072    22099 1
   22858    22072    22100 1
   22859    22073    22074 1
   22860    22073    22101 1
   22861    22073    22102 1
   22862    22074    22075 1
   22863    22074    22103 1
   22864    22074    22104 1
   22865    22075    22105 1
   22866    22075    22106 1
   22867    22075    22107 1
   22868    22076    22077 1
   22869    22076    22108 1
   22870    22076    22109 1
   22871    22077    22078 1
   22872    22077    22110 1
   22873    22077    22111 1
   22874    22078    22079 1
   22875    22078    22112 1
   22876    22078    22113 1
   22877    22079    22080 1
   22878    22079    22114 1
   22879    22079    22115 1
   22880    22080    22081 1
   22881    22080    22116 1
   22882    22080    22117 1
   22883    22081    22082 1
   22884    22081    22118 1
   22885    22081    22119 1
   22886    22082    22083 1
   22887    22082    22120 1
   22888    22082    22121 1
   22889    22083    22122 1
   22890    22083    22123 1
   22891    22083    22124 1
   22892    22125    22126 1
   22893    22125    22145 1
   22894    22125    22146 1
   22895    22126    22127 1
   22896    22126    22137 1
   22897    22126    22147 1
   22898    22127    22128 1
   22899    22127    22148 1
   22900    22127    22149 1
   22901    22128    22129 1
   22902    22128    22150 1
   22903    22128    22151 1
   22904    22129    22130 1
   22905    22129    22152 1
   22906    22129    22153 1
   22907    22130    22131 1
   22908    22130    22154 1
   22909    22130    22155 1
   22910    22131    22132 1
   22911    22131    22156 1
   22912    22131    22157 1
   22913    22132    22133 1
   22914    22132    22158 1
   22915    22132    22159 1
   22916    22133    22134 1
   22917    22133    22160 1
   22918    22133    22161 1
   22919    22134    22135 1
   22920    22134    22162 1
   22921    22134    22163 1
   22922    22135    22136 1
   22923    22135    22164 1
   22924    22135    22165 1
   22925    22136    22166 1
   22926    22136    22167 1
   22927    22136    22168 1
   22928    22137    22138 1
   22929    22137    22169 1
   22930    22137    22170 1
   22931    22138    22139 1
   22932    22138    22171 1
   22933    22138    22172 1
   22934    22139    22140 1
   22935    22139    22173 1
   22936    22139    22174 1
   22937    22140    22141 1
   22938    22140    22175 1
   22939    22140    22176 1
   22940    22141    22142 1
   22941    22141    22177 1
   22942    22141    22178 1
   22943    22142    22143 1
   22944    22142    22179 1
   22945    22142    22180 1
   22946    22143    22144 1
   22947    22143    22181 1
   22948    22143    22182 1
   22949    22144    22183 1
   22950    22144    22184 1
   22951    22144    22185 1
   22952    22186    22187 1
   22953    22186    22193 1
   22954    22186    22209 1
   22955    22186    22270 1
   22956    22187    22188 1
   22957    22187    22191 1
   22958    22188    22189 1
   22959    22188    22192 1
   22960    22189    22190 1
   22961    22190    22191 1
   22962    22191    22197 1
   22963    22192    22193 1
   22964    22192    22196 1
   22965    22193    22194 1
   22966    22194    22195 1
   22967    22194    22198 1
   22968    22195    22196 1
   22969    22195    22201 1
   22970    22199    22200 1
   22971    22199    22207 1
   22972    22200    22201 1
   22973    22200    22208 1
   22974    22201    22202 1
   22975    22202    22203 1
   22976    22202    22206 1
   22977    22203    22204 1
   22978    22204    22205 1
   22979    22205    22206 1
   22980    22206    22207 1
   22981    22207    22335 1
   22982    22209    22210 1
   22983    22209    22229 1
   22984    22209    22230 1
   22985    22210    22211 1
   22986    22210    22221 1
   22987    22210    22231 1
   22988    22211    22212 1
   22989    22211    22232 1
   22990    22211    22233 1
   22991    22212    22213 1
   22992    22212    22234 1
   22993    22212    22235 1
   22994    22213    22214 1
   22995    22213    22236 1
   22996    22213    22237 1
   22997    22214    22215 1
   22998    22214    22238 1
   22999    22214    22239 1
   23000    22215    22216 1
   23001    22215    22240 1
   23002    22215    22241 1
   23003    22216    22217 1
   23004    22216    22242 1
   23005    22216    22243 1
   23006    22217    22218 1
   23007    22217    22244 1
   23008    22217    22245 1
   23009    22218    22219 1
   23010    22218    22246 1
   23011    22218    22247 1
   23012    22219    22220 1
   23013    22219    22248 1
   23014    22219    22249 1
   23015    22220    22250 1
   23016    22220    22251 1
   23017    22220    22252 1
   23018    22221    22222 1
   23019    22221    22253 1
   23020    22221    22254 1
   23021    22222    22223 1
   23022    22222    22255 1
   23023    22222    22256 1
   23024    22223    22224 1
   23025    22223    22257 1
   23026    22223    22258 1
   23027    22224    22225 1
   23028    22224    22259 1
   23029    22224    22260 1
   23030    22225    22226 1
   23031    22225    22261 1
   23032    22225    22262 1
   23033    22226    22227 1
   23034    22226    22263 1
   23035    22226    22264 1
   23036    22227    22228 1
   23037    22227    22265 1
   23038    22227    22266 1
   23039    22228    22267 1
   23040    22228    22268 1
   23041    22228    22269 1
   23042    22270    22271 1
   23043    22270    22290 1
   23044    22270    22291 1
   23045    22271    22272 1
   23046    22271    22282 1
   23047    22271    22292 1
   23048    22272    22273 1
   23049    22272    22293 1
   23050    22272    22294 1
   23051    22273    22274 1
   23052    22273    22295 1
   23053    22273    22296 1
   23054    22274    22275 1
   23055    22274    22297 1
   23056    22274    22298 1
   23057    22275    22276 1
   23058    22275    22299 1
   23059    22275    22300 1
   23060    22276    22277 1
   23061    22276    22301 1
   23062    22276    22302 1
   23063    22277    22278 1
   23064    22277    22303 1
   23065    22277    22304 1
   23066    22278    22279 1
   23067    22278    22305 1
   23068    22278    22306 1
   23069    22279    22280 1
   23070    22279    22307 1
   23071    22279    22308 1
   23072    22280    22281 1
   23073    22280    22309 1
   23074    22280    22310 1
   23075    22281    22311 1
   23076    22281    22312 1
   23077    22281    22313 1
   23078    22282    22283 1
   23079    22282    22314 1
   23080    22282    22315 1
   23081    22283    22284 1
   23082    22283    22316 1
   23083    22283    22317 1
   23084    22284    22285 1
   23085    22284    22318 1
   23086    22284    22319 1
   23087    22285    22286 1
   23088    22285    22320 1
   23089    22285    22321 1
   23090    22286    22287 1
   23091    22286    22322 1
   23092    22286    22323 1
   23093    22287    22288 1
   23094    22287    22324 1
   23095    22287    22325 1
   23096    22288    22289 1
   23097    22288    22326 1
   23098    22288    22327 1
   23099    22289    22328 1
   23100    22289    22329 1
   23101    22289    22330 1
   23102    22331    22332 1
   23103    22331    22338 1
   23104    22331    22354 1
   23105    22331    22415 1
   23106    22332    22333 1
   23107    22332    22336 1
   23108    22333    22334 1
   23109    22333    22337 1
   23110    22334    22335 1
   23111    22335    22336 1
   23112    22336    22342 1
   23113    22337    22338 1
   23114    22337    22341 1
   23115    22338    22339 1
   23116    22339    22340 1
   23117    22339    22343 1
   23118    22340    22341 1
   23119    22340    22346 1
   23120    22344    22345 1
   23121    22344    22352 1
   23122    22345    22346 1
   23123    22345    22353 1
   23124    22346    22347 1
   23125    22347    22348 1
   23126    22347    22351 1
   23127    22348    22349 1
   23128    22349    22350 1
   23129    22350    22351 1
   23130    22351    22352 1
   23131    22352    22480 1
   23132    22354    22355 1
   23133    22354    22374 1
   23134    22354    22375 1
   23135    22355    22356 1
   23136    22355    22366 1
   23137    22355    22376 1
   23138    22356    22357 1
   23139    22356    22377 1
   23140    22356    22378 1
   23141    22357    22358 1
   23142    22357    22379 1
   23143    22357    22380 1
   23144    22358    22359 1
   23145    22358    22381 1
   23146    22358    22382 1
   23147    22359    22360 1
   23148    22359    22383 1
   23149    22359    22384 1
   23150    22360    22361 1
   23151    22360    22385 1
   23152    22360    22386 1
   23153    22361    22362 1
   23154    22361    22387 1
   23155    22361    22388 1
   23156    22362    22363 1
   23157    22362    22389 1
   23158    22362    22390 1
   23159    22363    22364 1
   23160    22363    22391 1
   23161    22363    22392 1
   23162    22364    22365 1
   23163    22364    22393 1
   23164    22364    22394 1
   23165    22365    22395 1
   23166    22365    22396 1
   23167    22365    22397 1
   23168    22366    22367 1
   23169    22366    22398 1
   23170    22366    22399 1
   23171    22367    22368 1
   23172    22367    22400 1
   23173    22367    22401 1
   23174    22368    22369 1
   23175    22368    22402 1
   23176    22368    22403 1
   23177    22369    22370 1
   23178    22369    22404 1
   23179    22369    22405 1
   23180    22370    22371 1
   23181    22370    22406 1
   23182    22370    22407 1
   23183    22371    22372 1
   23184    22371    22408 1
   23185    22371    22409 1
   23186    22372    22373 1
   23187    22372    22410 1
   23188    22372    22411 1
   23189    22373    22412 1
   23190    22373    22413 1
   23191    22373    22414 1
   23192    22415    22416 1
   23193    22415    22435 1
   23194    22415    22436 1
   23195    22416    22417 1
   23196    22416    22427 1
   23197    22416    22437 1
   23198    22417    22418 1
   23199    22417    22438 1
   23200    22417    22439 1
   23201    22418    22419 1
   23202    22418    22440 1
   23203    22418    22441 1
   23204    22419    22420 1
   23205    22419    22442 1
   23206    22419    22443 1
   23207    22420    22421 1
   23208    22420    22444 1
   23209    22420    22445 1
   23210    22421    22422 1
   23211    22421    22446 1
   23212    22421    22447 1
   23213    22422    22423 1
   23214    22422    22448 1
   23215    22422    22449 1
   23216    22423    22424 1
   23217    22423    22450 1
   23218    22423    22451 1
   23219    22424    22425 1
   23220    22424    22452 1
   23221    22424    22453 1
   23222    22425    22426 1
   23223    22425    22454 1
   23224    22425    22455 1
   23225    22426    22456 1
   23226    22426    22457 1
   23227    22426    22458 1
   23228    22427    22428 1
   23229    22427    22459 1
   23230    22427    22460 1
   23231    22428    22429 1
   23232    22428    22461 1
   23233    22428    22462 1
   23234    22429    22430 1
   23235    22429    22463 1
   23236    22429    22464 1
   23237    22430    22431 1
   23238    22430    22465 1
   23239    22430    22466 1
   23240    22431    22432 1
   23241    22431    22467 1
   23242    22431    22468 1
   23243    22432    22433 1
   23244    22432    22469 1
   23245    22432    22470 1
   23246    22433    22434 1
   23247    22433    22471 1
   23248    22433    22472 1
   23249    22434    22473 1
   23250    22434    22474 1
   23251    22434    22475 1
   23252    22476    22477 1
   23253    22476    22483 1
   23254    22476    22499 1
   23255    22476    22560 1
   23256    22477    22478 1
   23257    22477    22481 1
   23258    22478    22479 1
   23259    22478    22482 1
   23260    22479    22480 1
   23261    22480    22481 1
   23262    22481    22487 1
   23263    22482    22483 1
   23264    22482    22486 1
   23265    22483    22484 1
   23266    22484    22485 1
   23267    22484    22488 1
   23268    22485    22486 1
   23269    22485    22491 1
   23270    22489    22490 1
   23271    22489    22497 1
   23272    22490    22491 1
   23273    22490    22498 1
   23274    22491    22492 1
   23275    22492    22493 1
   23276    22492    22496 1
   23277    22493    22494 1
   23278    22494    22495 1
   23279    22495    22496 1
   23280    22496    22497 1
   23281    22497    22625 1
   23282    22499    22500 1
   23283    22499    22519 1
   23284    22499    22520 1
   23285    22500    22501 1
   23286    22500    22511 1
   23287    22500    22521 1
   23288    22501    22502 1
   23289    22501    22522 1
   23290    22501    22523 1
   23291    22502    22503 1
   23292    22502    22524 1
   23293    22502    22525 1
   23294    22503    22504 1
   23295    22503    22526 1
   23296    22503    22527 1
   23297    22504    22505 1
   23298    22504    22528 1
   23299    22504    22529 1
   23300    22505    22506 1
   23301    22505    22530 1
   23302    22505    22531 1
   23303    22506    22507 1
   23304    22506    22532 1
   23305    22506    22533 1
   23306    22507    22508 1
   23307    22507    22534 1
   23308    22507    22535 1
   23309    22508    22509 1
   23310    22508    22536 1
   23311    22508    22537 1
   23312    22509    22510 1
   23313    22509    22538 1
   23314    22509    22539 1
   23315    22510    22540 1
   23316    22510    22541 1
   23317    22510    22542 1
   23318    22511    22512 1
   23319    22511    22543 1
   23320    22511    22544 1
   23321    22512    22513 1
   23322    22512    22545 1
   23323    22512    22546 1
   23324    22513    22514 1
   23325    22513    22547 1
   23326    22513    22548 1
   23327    22514    22515 1
   23328    22514    22549 1
   23329    22514    22550 1
   23330    22515    22516 1
   23331    22515    22551 1
   23332    22515    22552 1
   23333    22516    22517 1
   23334    22516    22553 1
   23335    22516    22554 1
   23336    22517    22518 1
   23337    22517    22555 1
   23338    22517    22556 1
   23339    22518    22557 1
   23340    22518    22558 1
   23341    22518    22559 1
   23342    22560    22561 1
   23343    22560    22580 1
   23344    22560    22581 1
   23345    22561    22562 1
   23346    22561    22572 1
   23347    22561    22582 1
   23348    22562    22563 1
   23349    22562    22583 1
   23350    22562    22584 1
   23351    22563    22564 1
   23352    22563    22585 1
   23353    22563    22586 1
   23354    22564    22565 1
   23355    22564    22587 1
   23356    22564    22588 1
   23357    22565    22566 1
   23358    22565    22589 1
   23359    22565    22590 1
   23360    22566    22567 1
   23361    22566    22591 1
   23362    22566    22592 1
   23363    22567    22568 1
   23364    22567    22593 1
   23365    22567    22594 1
   23366    22568    22569 1
   23367    22568    22595 1
   23368    22568    22596 1
   23369    22569    22570 1
   23370    22569    22597 1
   23371    22569    22598 1
   23372    22570    22571 1
   23373    22570    22599 1
   23374    22570    22600 1
   23375    22571    22601 1
   23376    22571    22602 1
   23377    22571    22603 1
   23378    22572    22573 1
   23379    22572    22604 1
   23380    22572    22605 1
   23381    22573    22574 1
   23382    22573    22606 1
   23383    22573    22607 1
   23384    22574    22575 1
   23385    22574    22608 1
   23386    22574    22609 1
   23387    22575    22576 1
   23388    22575    22610 1
   23389    22575    22611 1
   23390    22576    22577 1
   23391    22576    22612 1
   23392    22576    22613 1
   23393    22577    22578 1
   23394    22577    22614 1
   23395    22577    22615 1
   23396    22578    22579 1
   23397    22578    22616 1
   23398    22578    22617 1
   23399    22579    22618 1
   23400    22579    22619 1
   23401    22579    22620 1
   23402    22621    22622 1
   23403    22621    22628 1
   23404    22621    22644 1
   23405    22621    22705 1
   23406    22622    22623 1
   23407    22622    22626 1
   23408    22623    22624 1
   23409    22623    22627 1
   23410    22624    22625 1
   23411    22625    22626 1
   23412    22626    22632 1
   23413    22627    22628 1
   23414    22627    22631 1
   23415    22628    22629 1
   23416    22629    22630 1
   23417    22629    22633 1
   23418    22630    22631 1
   23419    22630    22636 1
   23420    22634    22635 1
   23421    22634    22642 1
   23422    22635    22636 1
   23423    22635    22643 1
   23424    22636    22637 1
   23425    22637    22638 1
   23426    22637    22641 1
   23427    22638    22639 1
   23428    22639    22640 1
   23429    22640    22641 1
   23430    22641    22642 1
   23431    22642    22770 1
   23432    22644    22645 1
   23433    22644    22664 1
   23434    22644    22665 1
   23435    22645    22646 1
   23436    22645    22656 1
   23437    22645    22666 1
   23438    22646    22647 1
   23439    22646    22667 1
   23440    22646    22668 1
   23441    22647    22648 1
   23442    22647    22669 1
   23443    22647    22670 1
   23444    22648    22649 1
   23445    22648    22671 1
   23446    22648    22672 1
   23447    22649    22650 1
   23448    22649    22673 1
   23449    22649    22674 1
   23450    22650    22651 1
   23451    22650    22675 1
   23452    22650    22676 1
   23453    22651    22652 1
   23454    22651    22677 1
   23455    22651    22678 1
   23456    22652    22653 1
   23457    22652    22679 1
   23458    22652    22680 1
   23459    22653    22654 1
   23460    22653    22681 1
   23461    22653    22682 1
   23462    22654    22655 1
   23463    22654    22683 1
   23464    22654    22684 1
   23465    22655    22685 1
   23466    22655    22686 1
   23467    22655    22687 1
   23468    22656    22657 1
   23469    22656    22688 1
   23470    22656    22689 1
   23471    22657    22658 1
   23472    22657    22690 1
   23473    22657    22691 1
   23474    22658    22659 1
   23475    22658    22692 1
   23476    22658    22693 1
   23477    22659    22660 1
   23478    22659    22694 1
   23479    22659    22695 1
   23480    22660    22661 1
   23481    22660    22696 1
   23482    22660    22697 1
   23483    22661    22662 1
   23484    22661    22698 1
   23485    22661    22699 1
   23486    22662    22663 1
   23487    22662    22700 1
   23488    22662    22701 1
   23489    22663    22702 1
   23490    22663    22703 1
   23491    22663    22704 1
   23492    22705    22706 1
   23493    22705    22725 1
   23494    22705    22726 1
   23495    22706    22707 1
   23496    22706    22717 1
   23497    22706    22727 1
   23498    22707    22708 1
   23499    22707    22728 1
   23500    22707    22729 1
   23501    22708    22709 1
   23502    22708    22730 1
   23503    22708    22731 1
   23504    22709    22710 1
   23505    22709    22732 1
   23506    22709    22733 1
   23507    22710    22711 1
   23508    22710    22734 1
   23509    22710    22735 1
   23510    22711    22712 1
   23511    22711    22736 1
   23512    22711    22737 1
   23513    22712    22713 1
   23514    22712    22738 1
   23515    22712    22739 1
   23516    22713    22714 1
   23517    22713    22740 1
   23518    22713    22741 1
   23519    22714    22715 1
   23520    22714    22742 1
   23521    22714    22743 1
   23522    22715    22716 1
   23523    22715    22744 1
   23524    22715    22745 1
   23525    22716    22746 1
   23526    22716    22747 1
   23527    22716    22748 1
   23528    22717    22718 1
   23529    22717    22749 1
   23530    22717    22750 1
   23531    22718    22719 1
   23532    22718    22751 1
   23533    22718    22752 1
   23534    22719    22720 1
   23535    22719    22753 1
   23536    22719    22754 1
   23537    22720    22721 1
   23538    22720    22755 1
   23539    22720    22756 1
   23540    22721    22722 1
   23541    22721    22757 1
   23542    22721    22758 1
   23543    22722    22723 1
   23544    22722    22759 1
   23545    22722    22760 1
   23546    22723    22724 1
   23547    22723    22761 1
   23548    22723    22762 1
   23549    22724    22763 1
   23550    22724    22764 1
   23551    22724    22765 1
   23552    22766    22767 1
   23553    22766    22773 1
   23554    22766    22789 1
   23555    22766    22850 1
   23556    22767    22768 1
   23557    22767    22771 1
   23558    22768    22769 1
   23559    22768    22772 1
   23560    22769    22770 1
   23561    22770    22771 1
   23562    22771    22777 1
   23563    22772    22773 1
   23564    22772    22776 1
   23565    22773    22774 1
   23566    22774    22775 1
   23567    22774    22778 1
   23568    22775    22776 1
   23569    22775    22781 1
   23570    22779    22780 1
   23571    22779    22787 1
   23572    22780    22781 1
   23573    22780    22788 1
   23574    22781    22782 1
   23575    22782    22783 1
   23576    22782    22786 1
   23577    22783    22784 1
   23578    22784    22785 1
   23579    22785    22786 1
   23580    22786    22787 1
   23581    22787    22915 1
   23582    22789    22790 1
   23583    22789    22809 1
   23584    22789    22810 1
   23585    22790    22791 1
   23586    22790    22801 1
   23587    22790    22811 1
   23588    22791    22792 1
   23589    22791    22812 1
   23590    22791    22813 1
   23591    22792    22793 1
   23592    22792    22814 1
   23593    22792    22815 1
   23594    22793    22794 1
   23595    22793    22816 1
   23596    22793    22817 1
   23597    22794    22795 1
   23598    22794    22818 1
   23599    22794    22819 1
   23600    22795    22796 1
   23601    22795    22820 1
   23602    22795    22821 1
   23603    22796    22797 1
   23604    22796    22822 1
   23605    22796    22823 1
   23606    22797    22798 1
   23607    22797    22824 1
   23608    22797    22825 1
   23609    22798    22799 1
   23610    22798    22826 1
   23611    22798    22827 1
   23612    22799    22800 1
   23613    22799    22828 1
   23614    22799    22829 1
   23615    22800    22830 1
   23616    22800    22831 1
   23617    22800    22832 1
   23618    22801    22802 1
   23619    22801    22833 1
   23620    22801    22834 1
   23621    22802    22803 1
   23622    22802    22835 1
   23623    22802    22836 1
   23624    22803    22804 1
   23625    22803    22837 1
   23626    22803    22838 1
   23627    22804    22805 1
   23628    22804    22839 1
   23629    22804    22840 1
   23630    22805    22806 1
   23631    22805    22841 1
   23632    22805    22842 1
   23633    22806    22807 1
   23634    22806    22843 1
   23635    22806    22844 1
   23636    22807    22808 1
   23637    22807    22845 1
   23638    22807    22846 1
   23639    22808    22847 1
   23640    22808    22848 1
   23641    22808    22849 1
   23642    22850    22851 1
   23643    22850    22870 1
   23644    22850    22871 1
   23645    22851    22852 1
   23646    22851    22862 1
   23647    22851    22872 1
   23648    22852    22853 1
   23649    22852    22873 1
   23650    22852    22874 1
   23651    22853    22854 1
   23652    22853    22875 1
   23653    22853    22876 1
   23654    22854    22855 1
   23655    22854    22877 1
   23656    22854    22878 1
   23657    22855    22856 1
   23658    22855    22879 1
   23659    22855    22880 1
   23660    22856    22857 1
   23661    22856    22881 1
   23662    22856    22882 1
   23663    22857    22858 1
   23664    22857    22883 1
   23665    22857    22884 1
   23666    22858    22859 1
   23667    22858    22885 1
   23668    22858    22886 1
   23669    22859    22860 1
   23670    22859    22887 1
   23671    22859    22888 1
   23672    22860    22861 1
   23673    22860    22889 1
   23674    22860    22890 1
   23675    22861    22891 1
   23676    22861    22892 1
   23677    22861    22893 1
   23678    22862    22863 1
   23679    22862    22894 1
   23680    22862    22895 1
   23681    22863    22864 1
   23682    22863    22896 1
   23683    22863    22897 1
   23684    22864    22865 1
   23685    22864    22898 1
   23686    22864    22899 1
   23687    22865    22866 1
   23688    22865    22900 1
   23689    22865    22901 1
   23690    22866    22867 1
   23691    22866    22902 1
   23692    22866    22903 1
   23693    22867    22868 1
   23694    22867    22904 1
   23695    22867    22905 1
   23696    22868    22869 1
   23697    22868    22906 1
   23698    22868    22907 1
   23699    22869    22908 1
   23700    22869    22909 1
   23701    22869    22910 1
   23702    22911    22912 1
   23703    22911    22918 1
   23704    22911    22934 1
   23705    22911    22995 1
   23706    22912    22913 1
   23707    22912    22916 1
   23708    22913    22914 1
   23709    22913    22917 1
   23710    22914    22915 1
   23711    22915    22916 1
   23712    22916    22922 1
   23713    22917    22918 1
   23714    22917    22921 1
   23715    22918    22919 1
   23716    22919    22920 1
   23717    22919    22923 1
   23718    22920    22921 1
   23719    22920    22926 1
   23720    22924    22925 1
   23721    22924    22932 1
   23722    22925    22926 1
   23723    22925    22933 1
   23724    22926    22927 1
   23725    22927    22928 1
   23726    22927    22931 1
   23727    22928    22929 1
   23728    22929    22930 1
   23729    22930    22931 1
   23730    22931    22932 1
   23731    22932    23060 1
   23732    22934    22935 1
   23733    22934    22954 1
   23734    22934    22955 1
   23735    22935    22936 1
   23736    22935    22946 1
   23737    22935    22956 1
   23738    22936    22937 1
   23739    22936    22957 1
   23740    22936    22958 1
   23741    22937    22938 1
   23742    22937    22959 1
   23743    22937    22960 1
   23744    22938    22939 1
   23745    22938    22961 1
   23746    22938    22962 1
   23747    22939    22940 1
   23748    22939    22963 1
   23749    22939    22964 1
   23750    22940    22941 1
   23751    22940    22965 1
   23752    22940    22966 1
   23753    22941    22942 1
   23754    22941    22967 1
   23755    22941    22968 1
   23756    22942    22943 1
   23757    22942    22969 1
   23758    22942    22970 1
   23759    22943    22944 1
   23760    22943    22971 1
   23761    22943    22972 1
   23762    22944    22945 1
   23763    22944    22973 1
   23764    22944    22974 1
   23765    22945    22975 1
   23766    22945    22976 1
   23767    22945    22977 1
   23768    22946    22947 1
   23769    22946    22978 1
   23770    22946    22979 1
   23771    22947    22948 1
   23772    22947    22980 1
   23773    22947    22981 1
   23774    22948    22949 1
   23775    22948    22982 1
   23776    22948    22983 1
   23777    22949    22950 1
   23778    22949    22984 1
   23779    22949    22985 1
   23780    22950    22951 1
   23781    22950    22986 1
   23782    22950    22987 1
   23783    22951    22952 1
   23784    22951    22988 1
   23785    22951    22989 1
   23786    22952    22953 1
   23787    22952    22990 1
   23788    22952    22991 1
   23789    22953    22992 1
   23790    22953    22993 1
   23791    22953    22994 1
   23792    22995    22996 1
   23793    22995    23015 1
   23794    22995    23016 1
   23795    22996    22997 1
   23796    22996    23007 1
   23797    22996    23017 1
   23798    22997    22998 1
   23799    22997    23018 1
   23800    22997    23019 1
   23801    22998    22999 1
   23802    22998    23020 1
   23803    22998    23021 1
   23804    22999    23000 1
   23805    22999    23022 1
   23806    22999    23023 1
   23807    23000    23001 1
   23808    23000    23024 1
   23809    23000    23025 1
   23810    23001    23002 1
   23811    23001    23026 1
   23812    23001    23027 1
   23813    23002    23003 1
   23814    23002    23028 1
   23815    23002    23029 1
   23816    23003    23004 1
   23817    23003    23030 1
   23818    23003    23031 1
   23819    23004    23005 1
   23820    23004    23032 1
   23821    23004    23033 1
   23822    23005    23006 1
   23823    23005    23034 1
   23824    23005    23035 1
   23825    23006    23036 1
   23826    23006    23037 1
   23827    23006    23038 1
   23828    23007    23008 1
   23829    23007    23039 1
   23830    23007    23040 1
   23831    23008    23009 1
   23832    23008    23041 1
   23833    23008    23042 1
   23834    23009    23010 1
   23835    23009    23043 1
   23836    23009    23044 1
   23837    23010    23011 1
   23838    23010    23045 1
   23839    23010    23046 1
   23840    23011    23012 1
   23841    23011    23047 1
   23842    23011    23048 1
   23843    23012    23013 1
   23844    23012    23049 1
   23845    23012    23050 1
   23846    23013    23014 1
   23847    23013    23051 1
   23848    23013    23052 1
   23849    23014    23053 1
   23850    23014    23054 1
   23851    23014    23055 1
   23852    23056    23057 1
   23853    23056    23063 1
   23854    23056    23079 1
   23855    23056    23140 1
   23856    23057    23058 1
   23857    23057    23061 1
   23858    23058    23059 1
   23859    23058    23062 1
   23860    23059    23060 1
   23861    23060    23061 1
   23862    23061    23067 1
   23863    23062    23063 1
   23864    23062    23066 1
   23865    23063    23064 1
   23866    23064    23065 1
   23867    23064    23068 1
   23868    23065    23066 1
   23869    23065    23071 1
   23870    23069    23070 1
   23871    23069    23077 1
   23872    23070    23071 1
   23873    23070    23078 1
   23874    23071    23072 1
   23875    23072    23073 1
   23876    23072    23076 1
   23877    23073    23074 1
   23878    23074    23075 1
   23879    23075    23076 1
   23880    23076    23077 1
   23881    23077    23205 1
   23882    23079    23080 1
   23883    23079    23099 1
   23884    23079    23100 1
   23885    23080    23081 1
   23886    23080    23091 1
   23887    23080    23101 1
   23888    23081    23082 1
   23889    23081    23102 1
   23890    23081    23103 1
   23891    23082    23083 1
   23892    23082    23104 1
   23893    23082    23105 1
   23894    23083    23084 1
   23895    23083    23106 1
   23896    23083    23107 1
   23897    23084    23085 1
   23898    23084    23108 1
   23899    23084    23109 1
   23900    23085    23086 1
   23901    23085    23110 1
   23902    23085    23111 1
   23903    23086    23087 1
   23904    23086    23112 1
   23905    23086    23113 1
   23906    23087    23088 1
   23907    23087    23114 1
   23908    23087    23115 1
   23909    23088    23089 1
   23910    23088    23116 1
   23911    23088    23117 1
   23912    23089    23090 1
   23913    23089    23118 1
   23914    23089    23119 1
   23915    23090    23120 1
   23916    23090    23121 1
   23917    23090    23122 1
   23918    23091    23092 1
   23919    23091    23123 1
   23920    23091    23124 1
   23921    23092    23093 1
   23922    23092    23125 1
   23923    23092    23126 1
   23924    23093    23094 1
   23925    23093    23127 1
   23926    23093    23128 1
   23927    23094    23095 1
   23928    23094    23129 1
   23929    23094    23130 1
   23930    23095    23096 1
   23931    23095    23131 1
   23932    23095    23132 1
   23933    23096    23097 1
   23934    23096    23133 1
   23935    23096    23134 1
   23936    23097    23098 1
   23937    23097    23135 1
   23938    23097    23136 1
   23939    23098    23137 1
   23940    23098    23138 1
   23941    23098    23139 1
   23942    23140    23141 1
   23943    23140    23160 1
   23944    23140    23161 1
   23945    23141    23142 1
   23946    23141    23152 1
   23947    23141    23162 1
   23948    23142    23143 1
   23949    23142    23163 1
   23950    23142    23164 1
   23951    23143    23144 1
   23952    23143    23165 1
   23953    23143    23166 1
   23954    23144    23145 1
   23955    23144    23167 1
   23956    23144    23168 1
   23957    23145    23146 1
   23958    23145    23169 1
   23959    23145    23170 1
   23960    23146    23147 1
   23961    23146    23171 1
   23962    23146    23172 1
   23963    23147    23148 1
   23964    23147    23173 1
   23965    23147    23174 1
   23966    23148    23149 1
   23967    23148    23175 1
   23968    23148    23176 1
   23969    23149    23150 1
   23970    23149    23177 1
   23971    23149    23178 1
   23972    23150    23151 1
   23973    23150    23179 1
   23974    23150    23180 1
   23975    23151    23181 1
   23976    23151    23182 1
   23977    23151    23183 1
   23978    23152    23153 1
   23979    23152    23184 1
   23980    23152    23185 1
   23981    23153    23154 1
   23982    23153    23186 1
   23983    23153    23187 1
   23984    23154    23155 1
   23985    23154    23188 1
   23986    23154    23189 1
   23987    23155    23156 1
   23988    23155    23190 1
   23989    23155    23191 1
   23990    23156    23157 1
   23991    23156    23192 1
   23992    23156    23193 1
   23993    23157    23158 1
   23994    23157    23194 1
   23995    23157    23195 1
   23996    23158    23159 1
   23997    23158    23196 1
   23998    23158    23197 1
   23999    23159    23198 1
   24000    23159    23199 1
   24001    23159    23200 1
   24002    23201    23202 1
   24003    23201    23208 1
   24004    23201    23224 1
   24005    23201    23285 1
   24006    23202    23203 1
   24007    23202    23206 1
   24008    23203    23204 1
   24009    23203    23207 1
   24010    23204    23205 1
   24011    23205    23206 1
   24012    23206    23212 1
   24013    23207    23208 1
   24014    23207    23211 1
   24015    23208    23209 1
   24016    23209    23210 1
   24017    23209    23213 1
   24018    23210    23211 1
   24019    23210    23216 1
   24020    23214    23215 1
   24021    23214    23222 1
   24022    23215    23216 1
   24023    23215    23223 1
   24024    23216    23217 1
   24025    23217    23218 1
   24026    23217    23221 1
   24027    23218    23219 1
   24028    23219    23220 1
   24029    23220    23221 1
   24030    23221    23222 1
   24031    23222    23350 1
   24032    23224    23225 1
   24033    23224    23244 1
   24034    23224    23245 1
   24035    23225    23226 1
   24036    23225    23236 1
   24037    23225    23246 1
   24038    23226    23227 1
   24039    23226    23247 1
   24040    23226    23248 1
   24041    23227    23228 1
   24042    23227    23249 1
   24043    23227    23250 1
   24044    23228    23229 1
   24045    23228    23251 1
   24046    23228    23252 1
   24047    23229    23230 1
   24048    23229    23253 1
   24049    23229    23254 1
   24050    23230    23231 1
   24051    23230    23255 1
   24052    23230    23256 1
   24053    23231    23232 1
   24054    23231    23257 1
   24055    23231    23258 1
   24056    23232    23233 1
   24057    23232    23259 1
   24058    23232    23260 1
   24059    23233    23234 1
   24060    23233    23261 1
   24061    23233    23262 1
   24062    23234    23235 1
   24063    23234    23263 1
   24064    23234    23264 1
   24065    23235    23265 1
   24066    23235    23266 1
   24067    23235    23267 1
   24068    23236    23237 1
   24069    23236    23268 1
   24070    23236    23269 1
   24071    23237    23238 1
   24072    23237    23270 1
   24073    23237    23271 1
   24074    23238    23239 1
   24075    23238    23272 1
   24076    23238    23273 1
   24077    23239    23240 1
   24078    23239    23274 1
   24079    23239    23275 1
   24080    23240    23241 1
   24081    23240    23276 1
   24082    23240    23277 1
   24083    23241    23242 1
   24084    23241    23278 1
   24085    23241    23279 1
   24086    23242    23243 1
   24087    23242    23280 1
   24088    23242    23281 1
   24089    23243    23282 1
   24090    23243    23283 1
   24091    23243    23284 1
   24092    23285    23286 1
   24093    23285    23305 1
   24094    23285    23306 1
   24095    23286    23287 1
   24096    23286    23297 1
   24097    23286    23307 1
   24098    23287    23288 1
   24099    23287    23308 1
   24100    23287    23309 1
   24101    23288    23289 1
   24102    23288    23310 1
   24103    23288    23311 1
   24104    23289    23290 1
   24105    23289    23312 1
   24106    23289    23313 1
   24107    23290    23291 1
   24108    23290    23314 1
   24109    23290    23315 1
   24110    23291    23292 1
   24111    23291    23316 1
   24112    23291    23317 1
   24113    23292    23293 1
   24114    23292    23318 1
   24115    23292    23319 1
   24116    23293    23294 1
   24117    23293    23320 1
   24118    23293    23321 1
   24119    23294    23295 1
   24120    23294    23322 1
   24121    23294    23323 1
   24122    23295    23296 1
   24123    23295    23324 1
   24124    23295    23325 1
   24125    23296    23326 1
   24126    23296    23327 1
   24127    23296    23328 1
   24128    23297    23298 1
   24129    23297    23329 1
   24130    23297    23330 1
   24131    23298    23299 1
   24132    23298    23331 1
   24133    23298    23332 1
   24134    23299    23300 1
   24135    23299    23333 1
   24136    23299    23334 1
   24137    23300    23301 1
   24138    23300    23335 1
   24139    23300    23336 1
   24140    23301    23302 1
   24141    23301    23337 1
   24142    23301    23338 1
   24143    23302    23303 1
   24144    23302    23339 1
   24145    23302    23340 1
   24146    23303    23304 1
   24147    23303    23341 1
   24148    23303    23342 1
   24149    23304    23343 1
   24150    23304    23344 1
   24151    23304    23345 1
   24152    23346    23347 1
   24153    23346    23353 1
   24154    23346    23369 1
   24155    23346    23430 1
   24156    23347    23348 1
   24157    23347    23351 1
   24158    23348    23349 1
   24159    23348    23352 1
   24160    23349    23350 1
   24161    23350    23351 1
   24162    23351    23357 1
   24163    23352    23353 1
   24164    23352    23356 1
   24165    23353    23354 1
   24166    23354    23355 1
   24167    23354    23358 1
   24168    23355    23356 1
   24169    23355    23361 1
   24170    23359    23360 1
   24171    23359    23367 1
   24172    23360    23361 1
   24173    23360    23368 1
   24174    23361    23362 1
   24175    23362    23363 1
   24176    23362    23366 1
   24177    23363    23364 1
   24178    23364    23365 1
   24179    23365    23366 1
   24180    23366    23367 1
   24181    23367    23495 1
   24182    23369    23370 1
   24183    23369    23389 1
   24184    23369    23390 1
   24185    23370    23371 1
   24186    23370    23381 1
   24187    23370    23391 1
   24188    23371    23372 1
   24189    23371    23392 1
   24190    23371    23393 1
   24191    23372    23373 1
   24192    23372    23394 1
   24193    23372    23395 1
   24194    23373    23374 1
   24195    23373    23396 1
   24196    23373    23397 1
   24197    23374    23375 1
   24198    23374    23398 1
   24199    23374    23399 1
   24200    23375    23376 1
   24201    23375    23400 1
   24202    23375    23401 1
   24203    23376    23377 1
   24204    23376    23402 1
   24205    23376    23403 1
   24206    23377    23378 1
   24207    23377    23404 1
   24208    23377    23405 1
   24209    23378    23379 1
   24210    23378    23406 1
   24211    23378    23407 1
   24212    23379    23380 1
   24213    23379    23408 1
   24214    23379    23409 1
   24215    23380    23410 1
   24216    23380    23411 1
   24217    23380    23412 1
   24218    23381    23382 1
   24219    23381    23413 1
   24220    23381    23414 1
   24221    23382    23383 1
   24222    23382    23415 1
   24223    23382    23416 1
   24224    23383    23384 1
   24225    23383    23417 1
   24226    23383    23418 1
   24227    23384    23385 1
   24228    23384    23419 1
   24229    23384    23420 1
   24230    23385    23386 1
   24231    23385    23421 1
   24232    23385    23422 1
   24233    23386    23387 1
   24234    23386    23423 1
   24235    23386    23424 1
   24236    23387    23388 1
   24237    23387    23425 1
   24238    23387    23426 1
   24239    23388    23427 1
   24240    23388    23428 1
   24241    23388    23429 1
   24242    23430    23431 1
   24243    23430    23450 1
   24244    23430    23451 1
   24245    23431    23432 1
   24246    23431    23442 1
   24247    23431    23452 1
   24248    23432    23433 1
   24249    23432    23453 1
   24250    23432    23454 1
   24251    23433    23434 1
   24252    23433    23455 1
   24253    23433    23456 1
   24254    23434    23435 1
   24255    23434    23457 1
   24256    23434    23458 1
   24257    23435    23436 1
   24258    23435    23459 1
   24259    23435    23460 1
   24260    23436    23437 1
   24261    23436    23461 1
   24262    23436    23462 1
   24263    23437    23438 1
   24264    23437    23463 1
   24265    23437    23464 1
   24266    23438    23439 1
   24267    23438    23465 1
   24268    23438    23466 1
   24269    23439    23440 1
   24270    23439    23467 1
   24271    23439    23468 1
   24272    23440    23441 1
   24273    23440    23469 1
   24274    23440    23470 1
   24275    23441    23471 1
   24276    23441    23472 1
   24277    23441    23473 1
   24278    23442    23443 1
   24279    23442    23474 1
   24280    23442    23475 1
   24281    23443    23444 1
   24282    23443    23476 1
   24283    23443    23477 1
   24284    23444    23445 1
   24285    23444    23478 1
   24286    23444    23479 1
   24287    23445    23446 1
   24288    23445    23480 1
   24289    23445    23481 1
   24290    23446    23447 1
   24291    23446    23482 1
   24292    23446    23483 1
   24293    23447    23448 1
   24294    23447    23484 1
   24295    23447    23485 1
   24296    23448    23449 1
   24297    23448    23486 1
   24298    23448    23487 1
   24299    23449    23488 1
   24300    23449    23489 1
   24301    23449    23490 1
   24302    23491    23492 1
   24303    23491    23498 1
   24304    23491    23514 1
   24305    23491    23575 1
   24306    23492    23493 1
   24307    23492    23496 1
   24308    23493    23494 1
   24309    23493    23497 1
   24310    23494    23495 1
   24311    23495    23496 1
   24312    23496    23502 1
   24313    23497    23498 1
   24314    23497    23501 1
   24315    23498    23499 1
   24316    23499    23500 1
   24317    23499    23503 1
   24318    23500    23501 1
   24319    23500    23506 1
   24320    23504    23505 1
   24321    23504    23512 1
   24322    23505    23506 1
   24323    23505    23513 1
   24324    23506    23507 1
   24325    23507    23508 1
   24326    23507    23511 1
   24327    23508    23509 1
   24328    23509    23510 1
   24329    23510    23511 1
   24330    23511    23512 1
   24331    23512    23640 1
   24332    23514    23515 1
   24333    23514    23534 1
   24334    23514    23535 1
   24335    23515    23516 1
   24336    23515    23526 1
   24337    23515    23536 1
   24338    23516    23517 1
   24339    23516    23537 1
   24340    23516    23538 1
   24341    23517    23518 1
   24342    23517    23539 1
   24343    23517    23540 1
   24344    23518    23519 1
   24345    23518    23541 1
   24346    23518    23542 1
   24347    23519    23520 1
   24348    23519    23543 1
   24349    23519    23544 1
   24350    23520    23521 1
   24351    23520    23545 1
   24352    23520    23546 1
   24353    23521    23522 1
   24354    23521    23547 1
   24355    23521    23548 1
   24356    23522    23523 1
   24357    23522    23549 1
   24358    23522    23550 1
   24359    23523    23524 1
   24360    23523    23551 1
   24361    23523    23552 1
   24362    23524    23525 1
   24363    23524    23553 1
   24364    23524    23554 1
   24365    23525    23555 1
   24366    23525    23556 1
   24367    23525    23557 1
   24368    23526    23527 1
   24369    23526    23558 1
   24370    23526    23559 1
   24371    23527    23528 1
   24372    23527    23560 1
   24373    23527    23561 1
   24374    23528    23529 1
   24375    23528    23562 1
   24376    23528    23563 1
   24377    23529    23530 1
   24378    23529    23564 1
   24379    23529    23565 1
   24380    23530    23531 1
   24381    23530    23566 1
   24382    23530    23567 1
   24383    23531    23532 1
   24384    23531    23568 1
   24385    23531    23569 1
   24386    23532    23533 1
   24387    23532    23570 1
   24388    23532    23571 1
   24389    23533    23572 1
   24390    23533    23573 1
   24391    23533    23574 1
   24392    23575    23576 1
   24393    23575    23595 1
   24394    23575    23596 1
   24395    23576    23577 1
   24396    23576    23587 1
   24397    23576    23597 1
   24398    23577    23578 1
   24399    23577    23598 1
   24400    23577    23599 1
   24401    23578    23579 1
   24402    23578    23600 1
   24403    23578    23601 1
   24404    23579    23580 1
   24405    23579    23602 1
   24406    23579    23603 1
   24407    23580    23581 1
   24408    23580    23604 1
   24409    23580    23605 1
   24410    23581    23582 1
   24411    23581    23606 1
   24412    23581    23607 1
   24413    23582    23583 1
   24414    23582    23608 1
   24415    23582    23609 1
   24416    23583    23584 1
   24417    23583    23610 1
   24418    23583    23611 1
   24419    23584    23585 1
   24420    23584    23612 1
   24421    23584    23613 1
   24422    23585    23586 1
   24423    23585    23614 1
   24424    23585    23615 1
   24425    23586    23616 1
   24426    23586    23617 1
   24427    23586    23618 1
   24428    23587    23588 1
   24429    23587    23619 1
   24430    23587    23620 1
   24431    23588    23589 1
   24432    23588    23621 1
   24433    23588    23622 1
   24434    23589    23590 1
   24435    23589    23623 1
   24436    23589    23624 1
   24437    23590    23591 1
   24438    23590    23625 1
   24439    23590    23626 1
   24440    23591    23592 1
   24441    23591    23627 1
   24442    23591    23628 1
   24443    23592    23593 1
   24444    23592    23629 1
   24445    23592    23630 1
   24446    23593    23594 1
   24447    23593    23631 1
   24448    23593    23632 1
   24449    23594    23633 1
   24450    23594    23634 1
   24451    23594    23635 1
   24452    23636    23637 1
   24453    23636    23643 1
   24454    23636    23659 1
   24455    23636    23720 1
   24456    23637    23638 1
   24457    23637    23641 1
   24458    23638    23639 1
   24459    23638    23642 1
   24460    23639    23640 1
   24461    23640    23641 1
   24462    23641    23647 1
   24463    23642    23643 1
   24464    23642    23646 1
   24465    23643    23644 1
   24466    23644    23645 1
   24467    23644    23648 1
   24468    23645    23646 1
   24469    23645    23651 1
   24470    23649    23650 1
   24471    23649    23657 1
   24472    23650    23651 1
   24473    23650    23658 1
   24474    23651    23652 1
   24475    23652    23653 1
   24476    23652    23656 1
   24477    23653    23654 1
   24478    23654    23655 1
   24479    23655    23656 1
   24480    23656    23657 1
   24481    23657    23785 1
   24482    23659    23660 1
   24483    23659    23679 1
   24484    23659    23680 1
   24485    23660    23661 1
   24486    23660    23671 1
   24487    23660    23681 1
   24488    23661    23662 1
   24489    23661    23682 1
   24490    23661    23683 1
   24491    23662    23663 1
   24492    23662    23684 1
   24493    23662    23685 1
   24494    23663    23664 1
   24495    23663    23686 1
   24496    23663    23687 1
   24497    23664    23665 1
   24498    23664    23688 1
   24499    23664    23689 1
   24500    23665    23666 1
   24501    23665    23690 1
   24502    23665    23691 1
   24503    23666    23667 1
   24504    23666    23692 1
   24505    23666    23693 1
   24506    23667    23668 1
   24507    23667    23694 1
   24508    23667    23695 1
   24509    23668    23669 1
   24510    23668    23696 1
   24511    23668    23697 1
   24512    23669    23670 1
   24513    23669    23698 1
   24514    23669    23699 1
   24515    23670    23700 1
   24516    23670    23701 1
   24517    23670    23702 1
   24518    23671    23672 1
   24519    23671    23703 1
   24520    23671    23704 1
   24521    23672    23673 1
   24522    23672    23705 1
   24523    23672    23706 1
   24524    23673    23674 1
   24525    23673    23707 1
   24526    23673    23708 1
   24527    23674    23675 1
   24528    23674    23709 1
   24529    23674    23710 1
   24530    23675    23676 1
   24531    23675    23711 1
   24532    23675    23712 1
   24533    23676    23677 1
   24534    23676    23713 1
   24535    23676    23714 1
   24536    23677    23678 1
   24537    23677    23715 1
   24538    23677    23716 1
   24539    23678    23717 1
   24540    23678    23718 1
   24541    23678    23719 1
   24542    23720    23721 1
   24543    23720    23740 1
   24544    23720    23741 1
   24545    23721    23722 1
   24546    23721    23732 1
   24547    23721    23742 1
   24548    23722    23723 1
   24549    23722    23743 1
   24550    23722    23744 1
   24551    23723    23724 1
   24552    23723    23745 1
   24553    23723    23746 1
   24554    23724    23725 1
   24555    23724    23747 1
   24556    23724    23748 1
   24557    23725    23726 1
   24558    23725    23749 1
   24559    23725    23750 1
   24560    23726    23727 1
   24561    23726    23751 1
   24562    23726    23752 1
   24563    23727    23728 1
   24564    23727    23753 1
   24565    23727    23754 1
   24566    23728    23729 1
   24567    23728    23755 1
   24568    23728    23756 1
   24569    23729    23730 1
   24570    23729    23757 1
   24571    23729    23758 1
   24572    23730    23731 1
   24573    23730    23759 1
   24574    23730    23760 1
   24575    23731    23761 1
   24576    23731    23762 1
   24577    23731    23763 1
   24578    23732    23733 1
   24579    23732    23764 1
   24580    23732    23765 1
   24581    23733    23734 1
   24582    23733    23766 1
   24583    23733    23767 1
   24584    23734    23735 1
   24585    23734    23768 1
   24586    23734    23769 1
   24587    23735    23736 1
   24588    23735    23770 1
   24589    23735    23771 1
   24590    23736    23737 1
   24591    23736    23772 1
   24592    23736    23773 1
   24593    23737    23738 1
   24594    23737    23774 1
   24595    23737    23775 1
   24596    23738    23739 1
   24597    23738    23776 1
   24598    23738    23777 1
   24599    23739    23778 1
   24600    23739    23779 1
   24601    23739    23780 1
   24602    23781    23782 1
   24603    23781    23788 1
   24604    23781    23804 1
   24605    23781    23865 1
   24606    23782    23783 1
   24607    23782    23786 1
   24608    23783    23784 1
   24609    23783    23787 1
   24610    23784    23785 1
   24611    23785    23786 1
   24612    23786    23792 1
   24613    23787    23788 1
   24614    23787    23791 1
   24615    23788    23789 1
   24616    23789    23790 1
   24617    23789    23793 1
   24618    23790    23791 1
   24619    23790    23796 1
   24620    23794    23795 1
   24621    23794    23802 1
   24622    23795    23796 1
   24623    23795    23803 1
   24624    23796    23797 1
   24625    23797    23798 1
   24626    23797    23801 1
   24627    23798    23799 1
   24628    23799    23800 1
   24629    23800    23801 1
   24630    23801    23802 1
   24631    23802    23930 1
   24632    23804    23805 1
   24633    23804    23824 1
   24634    23804    23825 1
   24635    23805    23806 1
   24636    23805    23816 1
   24637    23805    23826 1
   24638    23806    23807 1
   24639    23806    23827 1
   24640    23806    23828 1
   24641    23807    23808 1
   24642    23807    23829 1
   24643    23807    23830 1
   24644    23808    23809 1
   24645    23808    23831 1
   24646    23808    23832 1
   24647    23809    23810 1
   24648    23809    23833 1
   24649    23809    23834 1
   24650    23810    23811 1
   24651    23810    23835 1
   24652    23810    23836 1
   24653    23811    23812 1
   24654    23811    23837 1
   24655    23811    23838 1
   24656    23812    23813 1
   24657    23812    23839 1
   24658    23812    23840 1
   24659    23813    23814 1
   24660    23813    23841 1
   24661    23813    23842 1
   24662    23814    23815 1
   24663    23814    23843 1
   24664    23814    23844 1
   24665    23815    23845 1
   24666    23815    23846 1
   24667    23815    23847 1
   24668    23816    23817 1
   24669    23816    23848 1
   24670    23816    23849 1
   24671    23817    23818 1
   24672    23817    23850 1
   24673    23817    23851 1
   24674    23818    23819 1
   24675    23818    23852 1
   24676    23818    23853 1
   24677    23819    23820 1
   24678    23819    23854 1
   24679    23819    23855 1
   24680    23820    23821 1
   24681    23820    23856 1
   24682    23820    23857 1
   24683    23821    23822 1
   24684    23821    23858 1
   24685    23821    23859 1
   24686    23822    23823 1
   24687    23822    23860 1
   24688    23822    23861 1
   24689    23823    23862 1
   24690    23823    23863 1
   24691    23823    23864 1
   24692    23865    23866 1
   24693    23865    23885 1
   24694    23865    23886 1
   24695    23866    23867 1
   24696    23866    23877 1
   24697    23866    23887 1
   24698    23867    23868 1
   24699    23867    23888 1
   24700    23867    23889 1
   24701    23868    23869 1
   24702    23868    23890 1
   24703    23868    23891 1
   24704    23869    23870 1
   24705    23869    23892 1
   24706    23869    23893 1
   24707    23870    23871 1
   24708    23870    23894 1
   24709    23870    23895 1
   24710    23871    23872 1
   24711    23871    23896 1
   24712    23871    23897 1
   24713    23872    23873 1
   24714    23872    23898 1
   24715    23872    23899 1
   24716    23873    23874 1
   24717    23873    23900 1
   24718    23873    23901 1
   24719    23874    23875 1
   24720    23874    23902 1
   24721    23874    23903 1
   24722    23875    23876 1
   24723    23875    23904 1
   24724    23875    23905 1
   24725    23876    23906 1
   24726    23876    23907 1
   24727    23876    23908 1
   24728    23877    23878 1
   24729    23877    23909 1
   24730    23877    23910 1
   24731    23878    23879 1
   24732    23878    23911 1
   24733    23878    23912 1
   24734    23879    23880 1
   24735    23879    23913 1
   24736    23879    23914 1
   24737    23880    23881 1
   24738    23880    23915 1
   24739    23880    23916 1
   24740    23881    23882 1
   24741    23881    23917 1
   24742    23881    23918 1
   24743    23882    23883 1
   24744    23882    23919 1
   24745    23882    23920 1
   24746    23883    23884 1
   24747    23883    23921 1
   24748    23883    23922 1
   24749    23884    23923 1
   24750    23884    23924 1
   24751    23884    23925 1
   24752    23926    23927 1
   24753    23926    23933 1
   24754    23926    23949 1
   24755    23926    24010 1
   24756    23927    23928 1
   24757    23927    23931 1
   24758    23928    23929 1
   24759    23928    23932 1
   24760    23929    23930 1
   24761    23930    23931 1
   24762    23931    23937 1
   24763    23932    23933 1
   24764    23932    23936 1
   24765    23933    23934 1
   24766    23934    23935 1
   24767    23934    23938 1
   24768    23935    23936 1
   24769    23935    23941 1
   24770    23939    23940 1
   24771    23939    23947 1
   24772    23940    23941 1
   24773    23940    23948 1
   24774    23941    23942 1
   24775    23942    23943 1
   24776    23942    23946 1
   24777    23943    23944 1
   24778    23944    23945 1
   24779    23945    23946 1
   24780    23946    23947 1
   24781    23947    24075 1
   24782    23949    23950 1
   24783    23949    23969 1
   24784    23949    23970 1
   24785    23950    23951 1
   24786    23950    23961 1
   24787    23950    23971 1
   24788    23951    23952 1
   24789    23951    23972 1
   24790    23951    23973 1
   24791    23952    23953 1
   24792    23952    23974 1
   24793    23952    23975 1
   24794    23953    23954 1
   24795    23953    23976 1
   24796    23953    23977 1
   24797    23954    23955 1
   24798    23954    23978 1
   24799    23954    23979 1
   24800    23955    23956 1
   24801    23955    23980 1
   24802    23955    23981 1
   24803    23956    23957 1
   24804    23956    23982 1
   24805    23956    23983 1
   24806    23957    23958 1
   24807    23957    23984 1
   24808    23957    23985 1
   24809    23958    23959 1
   24810    23958    23986 1
   24811    23958    23987 1
   24812    23959    23960 1
   24813    23959    23988 1
   24814    23959    23989 1
   24815    23960    23990 1
   24816    23960    23991 1
   24817    23960    23992 1
   24818    23961    23962 1
   24819    23961    23993 1
   24820    23961    23994 1
   24821    23962    23963 1
   24822    23962    23995 1
   24823    23962    23996 1
   24824    23963    23964 1
   24825    23963    23997 1
   24826    23963    23998 1
   24827    23964    23965 1
   24828    23964    23999 1
   24829    23964    24000 1
   24830    23965    23966 1
   24831    23965    24001 1
   24832    23965    24002 1
   24833    23966    23967 1
   24834    23966    24003 1
   24835    23966    24004 1
   24836    23967    23968 1
   24837    23967    24005 1
   24838    23967    24006 1
   24839    23968    24007 1
   24840    23968    24008 1
   24841    23968    24009 1
   24842    24010    24011 1
   24843    24010    24030 1
   24844    24010    24031 1
   24845    24011    24012 1
   24846    24011    24022 1
   24847    24011    24032 1
   24848    24012    24013 1
   24849    24012    24033 1
   24850    24012    24034 1
   24851    24013    24014 1
   24852    24013    24035 1
   24853    24013    24036 1
   24854    24014    24015 1
   24855    24014    24037 1
   24856    24014    24038 1
   24857    24015    24016 1
   24858    24015    24039 1
   24859    24015    24040 1
   24860    24016    24017 1
   24861    24016    24041 1
   24862    24016    24042 1
   24863    24017    24018 1
   24864    24017    24043 1
   24865    24017    24044 1
   24866    24018    24019 1
   24867    24018    24045 1
   24868    24018    24046 1
   24869    24019    24020 1
   24870    24019    24047 1
   24871    24019    24048 1
   24872    24020    24021 1
   24873    24020    24049 1
   24874    24020    24050 1
   24875    24021    24051 1
   24876    24021    24052 1
   24877    24021    24053 1
   24878    24022    24023 1
   24879    24022    24054 1
   24880    24022    24055 1
   24881    24023    24024 1
   24882    24023    24056 1
   24883    24023    24057 1
   24884    24024    24025 1
   24885    24024    24058 1
   24886    24024    24059 1
   24887    24025    24026 1
   24888    24025    24060 1
   24889    24025    24061 1
   24890    24026    24027 1
   24891    24026    24062 1
   24892    24026    24063 1
   24893    24027    24028 1
   24894    24027    24064 1
   24895    24027    24065 1
   24896    24028    24029 1
   24897    24028    24066 1
   24898    24028    24067 1
   24899    24029    24068 1
   24900    24029    24069 1
   24901    24029    24070 1
   24902    24071    24072 1
   24903    24071    24078 1
   24904    24071    24094 1
   24905    24071    24155 1
   24906    24072    24073 1
   24907    24072    24076 1
   24908    24073    24074 1
   24909    24073    24077 1
   24910    24074    24075 1
   24911    24075    24076 1
   24912    24076    24082 1
   24913    24077    24078 1
   24914    24077    24081 1
   24915    24078    24079 1
   24916    24079    24080 1
   24917    24079    24083 1
   24918    24080    24081 1
   24919    24080    24086 1
   24920    24084    24085 1
   24921    24084    24092 1
   24922    24085    24086 1
   24923    24085    24093 1
   24924    24086    24087 1
   24925    24087    24088 1
   24926    24087    24091 1
   24927    24088    24089 1
   24928    24089    24090 1
   24929    24090    24091 1
   24930    24091    24092 1
   24931    24092    24220 1
   24932    24094    24095 1
   24933    24094    24114 1
   24934    24094    24115 1
   24935    24095    24096 1
   24936    24095    24106 1
   24937    24095    24116 1
   24938    24096    24097 1
   24939    24096    24117 1
   24940    24096    24118 1
   24941    24097    24098 1
   24942    24097    24119 1
   24943    24097    24120 1
   24944    24098    24099 1
   24945    24098    24121 1
   24946    24098    24122 1
   24947    24099    24100 1
   24948    24099    24123 1
   24949    24099    24124 1
   24950    24100    24101 1
   24951    24100    24125 1
   24952    24100    24126 1
   24953    24101    24102 1
   24954    24101    24127 1
   24955    24101    24128 1
   24956    24102    24103 1
   24957    24102    24129 1
   24958    24102    24130 1
   24959    24103    24104 1
   24960    24103    24131 1
   24961    24103    24132 1
   24962    24104    24105 1
   24963    24104    24133 1
   24964    24104    24134 1
   24965    24105    24135 1
   24966    24105    24136 1
   24967    24105    24137 1
   24968    24106    24107 1
   24969    24106    24138 1
   24970    24106    24139 1
   24971    24107    24108 1
   24972    24107    24140 1
   24973    24107    24141 1
   24974    24108    24109 1
   24975    24108    24142 1
   24976    24108    24143 1
   24977    24109    24110 1
   24978    24109    24144 1
   24979    24109    24145 1
   24980    24110    24111 1
   24981    24110    24146 1
   24982    24110    24147 1
   24983    24111    24112 1
   24984    24111    24148 1
   24985    24111    24149 1
   24986    24112    24113 1
   24987    24112    24150 1
   24988    24112    24151 1
   24989    24113    24152 1
   24990    24113    24153 1
   24991    24113    24154 1
   24992    24155    24156 1
   24993    24155    24175 1
   24994    24155    24176 1
   24995    24156    24157 1
   24996    24156    24167 1
   24997    24156    24177 1
   24998    24157    24158 1
   24999    24157    24178 1
   25000    24157    24179 1
   25001    24158    24159 1
   25002    24158    24180 1
   25003    24158    24181 1
   25004    24159    24160 1
   25005    24159    24182 1
   25006    24159    24183 1
   25007    24160    24161 1
   25008    24160    24184 1
   25009    24160    24185 1
   25010    24161    24162 1
   25011    24161    24186 1
   25012    24161    24187 1
   25013    24162    24163 1
   25014    24162    24188 1
   25015    24162    24189 1
   25016    24163    24164 1
   25017    24163    24190 1
   25018    24163    24191 1
   25019    24164    24165 1
   25020    24164    24192 1
   25021    24164    24193 1
   25022    24165    24166 1
   25023    24165    24194 1
   25024    24165    24195 1
   25025    24166    24196 1
   25026    24166    24197 1
   25027    24166    24198 1
   25028    24167    24168 1
   25029    24167    24199 1
   25030    24167    24200 1
   25031    24168    24169 1
   25032    24168    24201 1
   25033    24168    24202 1
   25034    24169    24170 1
   25035    24169    24203 1
   25036    24169    24204 1
   25037    24170    24171 1
   25038    24170    24205 1
   25039    24170    24206 1
   25040    24171    24172 1
   25041    24171    24207 1
   25042    24171    24208 1
   25043    24172    24173 1
   25044    24172    24209 1
   25045    24172    24210 1
   25046    24173    24174 1
   25047    24173    24211 1
   25048    24173    24212 1
   25049    24174    24213 1
   25050    24174    24214 1
   25051    24174    24215 1
   25052    24216    24217 1
   25053    24216    24223 1
   25054    24216    24239 1
   25055    24216    24300 1
   25056    24217    24218 1
   25057    24217    24221 1
   25058    24218    24219 1
   25059    24218    24222 1
   25060    24219    24220 1
   25061    24220    24221 1
   25062    24221    24227 1
   25063    24222    24223 1
   25064    24222    24226 1
   25065    24223    24224 1
   25066    24224    24225 1
   25067    24224    24228 1
   25068    24225    24226 1
   25069    24225    24231 1
   25070    24229    24230 1
   25071    24229    24237 1
   25072    24230    24231 1
   25073    24230    24238 1
   25074    24231    24232 1
   25075    24232    24233 1
   25076    24232    24236 1
   25077    24233    24234 1
   25078    24234    24235 1
   25079    24235    24236 1
   25080    24236    24237 1
   25081    24237    24365 1
   25082    24239    24240 1
   25083    24239    24259 1
   25084    24239    24260 1
   25085    24240    24241 1
   25086    24240    24251 1
   25087    24240    24261 1
   25088    24241    24242 1
   25089    24241    24262 1
   25090    24241    24263 1
   25091    24242    24243 1
   25092    24242    24264 1
   25093    24242    24265 1
   25094    24243    24244 1
   25095    24243    24266 1
   25096    24243    24267 1
   25097    24244    24245 1
   25098    24244    24268 1
   25099    24244    24269 1
   25100    24245    24246 1
   25101    24245    24270 1
   25102    24245    24271 1
   25103    24246    24247 1
   25104    24246    24272 1
   25105    24246    24273 1
   25106    24247    24248 1
   25107    24247    24274 1
   25108    24247    24275 1
   25109    24248    24249 1
   25110    24248    24276 1
   25111    24248    24277 1
   25112    24249    24250 1
   25113    24249    24278 1
   25114    24249    24279 1
   25115    24250    24280 1
   25116    24250    24281 1
   25117    24250    24282 1
   25118    24251    24252 1
   25119    24251    24283 1
   25120    24251    24284 1
   25121    24252    24253 1
   25122    24252    24285 1
   25123    24252    24286 1
   25124    24253    24254 1
   25125    24253    24287 1
   25126    24253    24288 1
   25127    24254    24255 1
   25128    24254    24289 1
   25129    24254    24290 1
   25130    24255    24256 1
   25131    24255    24291 1
   25132    24255    24292 1
   25133    24256    24257 1
   25134    24256    24293 1
   25135    24256    24294 1
   25136    24257    24258 1
   25137    24257    24295 1
   25138    24257    24296 1
   25139    24258    24297 1
   25140    24258    24298 1
   25141    24258    24299 1
   25142    24300    24301 1
   25143    24300    24320 1
   25144    24300    24321 1
   25145    24301    24302 1
   25146    24301    24312 1
   25147    24301    24322 1
   25148    24302    24303 1
   25149    24302    24323 1
   25150    24302    24324 1
   25151    24303    24304 1
   25152    24303    24325 1
   25153    24303    24326 1
   25154    24304    24305 1
   25155    24304    24327 1
   25156    24304    24328 1
   25157    24305    24306 1
   25158    24305    24329 1
   25159    24305    24330 1
   25160    24306    24307 1
   25161    24306    24331 1
   25162    24306    24332 1
   25163    24307    24308 1
   25164    24307    24333 1
   25165    24307    24334 1
   25166    24308    24309 1
   25167    24308    24335 1
   25168    24308    24336 1
   25169    24309    24310 1
   25170    24309    24337 1
   25171    24309    24338 1
   25172    24310    24311 1
   25173    24310    24339 1
   25174    24310    24340 1
   25175    24311    24341 1
   25176    24311    24342 1
   25177    24311    24343 1
   25178    24312    24313 1
   25179    24312    24344 1
   25180    24312    24345 1
   25181    24313    24314 1
   25182    24313    24346 1
   25183    24313    24347 1
   25184    24314    24315 1
   25185    24314    24348 1
   25186    24314    24349 1
   25187    24315    24316 1
   25188    24315    24350 1
   25189    24315    24351 1
   25190    24316    24317 1
   25191    24316    24352 1
   25192    24316    24353 1
   25193    24317    24318 1
   25194    24317    24354 1
   25195    24317    24355 1
   25196    24318    24319 1
   25197    24318    24356 1
   25198    24318    24357 1
   25199    24319    24358 1
   25200    24319    24359 1
   25201    24319    24360 1
   25202    24361    24362 1
   25203    24361    24368 1
   25204    24361    24384 1
   25205    24361    24445 1
   25206    24362    24363 1
   25207    24362    24366 1
   25208    24363    24364 1
   25209    24363    24367 1
   25210    24364    24365 1
   25211    24365    24366 1
   25212    24366    24372 1
   25213    24367    24368 1
   25214    24367    24371 1
   25215    24368    24369 1
   25216    24369    24370 1
   25217    24369    24373 1
   25218    24370    24371 1
   25219    24370    24376 1
   25220    24374    24375 1
   25221    24374    24382 1
   25222    24375    24376 1
   25223    24375    24383 1
   25224    24376    24377 1
   25225    24377    24378 1
   25226    24377    24381 1
   25227    24378    24379 1
   25228    24379    24380 1
   25229    24380    24381 1
   25230    24381    24382 1
   25231    24382    24510 1
   25232    24384    24385 1
   25233    24384    24404 1
   25234    24384    24405 1
   25235    24385    24386 1
   25236    24385    24396 1
   25237    24385    24406 1
   25238    24386    24387 1
   25239    24386    24407 1
   25240    24386    24408 1
   25241    24387    24388 1
   25242    24387    24409 1
   25243    24387    24410 1
   25244    24388    24389 1
   25245    24388    24411 1
   25246    24388    24412 1
   25247    24389    24390 1
   25248    24389    24413 1
   25249    24389    24414 1
   25250    24390    24391 1
   25251    24390    24415 1
   25252    24390    24416 1
   25253    24391    24392 1
   25254    24391    24417 1
   25255    24391    24418 1
   25256    24392    24393 1
   25257    24392    24419 1
   25258    24392    24420 1
   25259    24393    24394 1
   25260    24393    24421 1
   25261    24393    24422 1
   25262    24394    24395 1
   25263    24394    24423 1
   25264    24394    24424 1
   25265    24395    24425 1
   25266    24395    24426 1
   25267    24395    24427 1
   25268    24396    24397 1
   25269    24396    24428 1
   25270    24396    24429 1
   25271    24397    24398 1
   25272    24397    24430 1
   25273    24397    24431 1
   25274    24398    24399 1
   25275    24398    24432 1
   25276    24398    24433 1
   25277    24399    24400 1
   25278    24399    24434 1
   25279    24399    24435 1
   25280    24400    24401 1
   25281    24400    24436 1
   25282    24400    24437 1
   25283    24401    24402 1
   25284    24401    24438 1
   25285    24401    24439 1
   25286    24402    24403 1
   25287    24402    24440 1
   25288    24402    24441 1
   25289    24403    24442 1
   25290    24403    24443 1
   25291    24403    24444 1
   25292    24445    24446 1
   25293    24445    24465 1
   25294    24445    24466 1
   25295    24446    24447 1
   25296    24446    24457 1
   25297    24446    24467 1
   25298    24447    24448 1
   25299    24447    24468 1
   25300    24447    24469 1
   25301    24448    24449 1
   25302    24448    24470 1
   25303    24448    24471 1
   25304    24449    24450 1
   25305    24449    24472 1
   25306    24449    24473 1
   25307    24450    24451 1
   25308    24450    24474 1
   25309    24450    24475 1
   25310    24451    24452 1
   25311    24451    24476 1
   25312    24451    24477 1
   25313    24452    24453 1
   25314    24452    24478 1
   25315    24452    24479 1
   25316    24453    24454 1
   25317    24453    24480 1
   25318    24453    24481 1
   25319    24454    24455 1
   25320    24454    24482 1
   25321    24454    24483 1
   25322    24455    24456 1
   25323    24455    24484 1
   25324    24455    24485 1
   25325    24456    24486 1
   25326    24456    24487 1
   25327    24456    24488 1
   25328    24457    24458 1
   25329    24457    24489 1
   25330    24457    24490 1
   25331    24458    24459 1
   25332    24458    24491 1
   25333    24458    24492 1
   25334    24459    24460 1
   25335    24459    24493 1
   25336    24459    24494 1
   25337    24460    24461 1
   25338    24460    24495 1
   25339    24460    24496 1
   25340    24461    24462 1
   25341    24461    24497 1
   25342    24461    24498 1
   25343    24462    24463 1
   25344    24462    24499 1
   25345    24462    24500 1
   25346    24463    24464 1
   25347    24463    24501 1
   25348    24463    24502 1
   25349    24464    24503 1
   25350    24464    24504 1
   25351    24464    24505 1
   25352    24506    24507 1
   25353    24506    24513 1
   25354    24506    24529 1
   25355    24506    24590 1
   25356    24507    24508 1
   25357    24507    24511 1
   25358    24508    24509 1
   25359    24508    24512 1
   25360    24509    24510 1
   25361    24510    24511 1
   25362    24511    24517 1
   25363    24512    24513 1
   25364    24512    24516 1
   25365    24513    24514 1
   25366    24514    24515 1
   25367    24514    24518 1
   25368    24515    24516 1
   25369    24515    24521 1
   25370    24519    24520 1
   25371    24519    24527 1
   25372    24520    24521 1
   25373    24520    24528 1
   25374    24521    24522 1
   25375    24522    24523 1
   25376    24522    24526 1
   25377    24523    24524 1
   25378    24524    24525 1
   25379    24525    24526 1
   25380    24526    24527 1
   25381    24527    24655 1
   25382    24529    24530 1
   25383    24529    24549 1
   25384    24529    24550 1
   25385    24530    24531 1
   25386    24530    24541 1
   25387    24530    24551 1
   25388    24531    24532 1
   25389    24531    24552 1
   25390    24531    24553 1
   25391    24532    24533 1
   25392    24532    24554 1
   25393    24532    24555 1
   25394    24533    24534 1
   25395    24533    24556 1
   25396    24533    24557 1
   25397    24534    24535 1
   25398    24534    24558 1
   25399    24534    24559 1
   25400    24535    24536 1
   25401    24535    24560 1
   25402    24535    24561 1
   25403    24536    24537 1
   25404    24536    24562 1
   25405    24536    24563 1
   25406    24537    24538 1
   25407    24537    24564 1
   25408    24537    24565 1
   25409    24538    24539 1
   25410    24538    24566 1
   25411    24538    24567 1
   25412    24539    24540 1
   25413    24539    24568 1
   25414    24539    24569 1
   25415    24540    24570 1
   25416    24540    24571 1
   25417    24540    24572 1
   25418    24541    24542 1
   25419    24541    24573 1
   25420    24541    24574 1
   25421    24542    24543 1
   25422    24542    24575 1
   25423    24542    24576 1
   25424    24543    24544 1
   25425    24543    24577 1
   25426    24543    24578 1
   25427    24544    24545 1
   25428    24544    24579 1
   25429    24544    24580 1
   25430    24545    24546 1
   25431    24545    24581 1
   25432    24545    24582 1
   25433    24546    24547 1
   25434    24546    24583 1
   25435    24546    24584 1
   25436    24547    24548 1
   25437    24547    24585 1
   25438    24547    24586 1
   25439    24548    24587 1
   25440    24548    24588 1
   25441    24548    24589 1
   25442    24590    24591 1
   25443    24590    24610 1
   25444    24590    24611 1
   25445    24591    24592 1
   25446    24591    24602 1
   25447    24591    24612 1
   25448    24592    24593 1
   25449    24592    24613 1
   25450    24592    24614 1
   25451    24593    24594 1
   25452    24593    24615 1
   25453    24593    24616 1
   25454    24594    24595 1
   25455    24594    24617 1
   25456    24594    24618 1
   25457    24595    24596 1
   25458    24595    24619 1
   25459    24595    24620 1
   25460    24596    24597 1
   25461    24596    24621 1
   25462    24596    24622 1
   25463    24597    24598 1
   25464    24597    24623 1
   25465    24597    24624 1
   25466    24598    24599 1
   25467    24598    24625 1
   25468    24598    24626 1
   25469    24599    24600 1
   25470    24599    24627 1
   25471    24599    24628 1
   25472    24600    24601 1
   25473    24600    24629 1
   25474    24600    24630 1
   25475    24601    24631 1
   25476    24601    24632 1
   25477    24601    24633 1
   25478    24602    24603 1
   25479    24602    24634 1
   25480    24602    24635 1
   25481    24603    24604 1
   25482    24603    24636 1
   25483    24603    24637 1
   25484    24604    24605 1
   25485    24604    24638 1
   25486    24604    24639 1
   25487    24605    24606 1
   25488    24605    24640 1
   25489    24605    24641 1
   25490    24606    24607 1
   25491    24606    24642 1
   25492    24606    24643 1
   25493    24607    24608 1
   25494    24607    24644 1
   25495    24607    24645 1
   25496    24608    24609 1
   25497    24608    24646 1
   25498    24608    24647 1
   25499    24609    24648 1
   25500    24609    24649 1
   25501    24609    24650 1
   25502    24651    24652 1
   25503    24651    24658 1
   25504    24651    24674 1
   25505    24651    24735 1
   25506    24652    24653 1
   25507    24652    24656 1
   25508    24653    24654 1
   25509    24653    24657 1
   25510    24654    24655 1
   25511    24655    24656 1
   25512    24656    24662 1
   25513    24657    24658 1
   25514    24657    24661 1
   25515    24658    24659 1
   25516    24659    24660 1
   25517    24659    24663 1
   25518    24660    24661 1
   25519    24660    24666 1
   25520    24664    24665 1
   25521    24664    24672 1
   25522    24665    24666 1
   25523    24665    24673 1
   25524    24666    24667 1
   25525    24667    24668 1
   25526    24667    24671 1
   25527    24668    24669 1
   25528    24669    24670 1
   25529    24670    24671 1
   25530    24671    24672 1
   25531    24672    24800 1
   25532    24674    24675 1
   25533    24674    24694 1
   25534    24674    24695 1
   25535    24675    24676 1
   25536    24675    24686 1
   25537    24675    24696 1
   25538    24676    24677 1
   25539    24676    24697 1
   25540    24676    24698 1
   25541    24677    24678 1
   25542    24677    24699 1
   25543    24677    24700 1
   25544    24678    24679 1
   25545    24678    24701 1
   25546    24678    24702 1
   25547    24679    24680 1
   25548    24679    24703 1
   25549    24679    24704 1
   25550    24680    24681 1
   25551    24680    24705 1
   25552    24680    24706 1
   25553    24681    24682 1
   25554    24681    24707 1
   25555    24681    24708 1
   25556    24682    24683 1
   25557    24682    24709 1
   25558    24682    24710 1
   25559    24683    24684 1
   25560    24683    24711 1
   25561    24683    24712 1
   25562    24684    24685 1
   25563    24684    24713 1
   25564    24684    24714 1
   25565    24685    24715 1
   25566    24685    24716 1
   25567    24685    24717 1
   25568    24686    24687 1
   25569    24686    24718 1
   25570    24686    24719 1
   25571    24687    24688 1
   25572    24687    24720 1
   25573    24687    24721 1
   25574    24688    24689 1
   25575    24688    24722 1
   25576    24688    24723 1
   25577    24689    24690 1
   25578    24689    24724 1
   25579    24689    24725 1
   25580    24690    24691 1
   25581    24690    24726 1
   25582    24690    24727 1
   25583    24691    24692 1
   25584    24691    24728 1
   25585    24691    24729 1
   25586    24692    24693 1
   25587    24692    24730 1
   25588    24692    24731 1
   25589    24693    24732 1
   25590    24693    24733 1
   25591    24693    24734 1
   25592    24735    24736 1
   25593    24735    24755 1
   25594    24735    24756 1
   25595    24736    24737 1
   25596    24736    24747 1
   25597    24736    24757 1
   25598    24737    24738 1
   25599    24737    24758 1
   25600    24737    24759 1
   25601    24738    24739 1
   25602    24738    24760 1
   25603    24738    24761 1
   25604    24739    24740 1
   25605    24739    24762 1
   25606    24739    24763 1
   25607    24740    24741 1
   25608    24740    24764 1
   25609    24740    24765 1
   25610    24741    24742 1
   25611    24741    24766 1
   25612    24741    24767 1
   25613    24742    24743 1
   25614    24742    24768 1
   25615    24742    24769 1
   25616    24743    24744 1
   25617    24743    24770 1
   25618    24743    24771 1
   25619    24744    24745 1
   25620    24744    24772 1
   25621    24744    24773 1
   25622    24745    24746 1
   25623    24745    24774 1
   25624    24745    24775 1
   25625    24746    24776 1
   25626    24746    24777 1
   25627    24746    24778 1
   25628    24747    24748 1
   25629    24747    24779 1
   25630    24747    24780 1
   25631    24748    24749 1
   25632    24748    24781 1
   25633    24748    24782 1
   25634    24749    24750 1
   25635    24749    24783 1
   25636    24749    24784 1
   25637    24750    24751 1
   25638    24750    24785 1
   25639    24750    24786 1
   25640    24751    24752 1
   25641    24751    24787 1
   25642    24751    24788 1
   25643    24752    24753 1
   25644    24752    24789 1
   25645    24752    24790 1
   25646    24753    24754 1
   25647    24753    24791 1
   25648    24753    24792 1
   25649    24754    24793 1
   25650    24754    24794 1
   25651    24754    24795 1
   25652    24796    24797 1
   25653    24796    24803 1
   25654    24796    24819 1
   25655    24796    24880 1
   25656    24797    24798 1
   25657    24797    24801 1
   25658    24798    24799 1
   25659    24798    24802 1
   25660    24799    24800 1
   25661    24800    24801 1
   25662    24801    24807 1
   25663    24802    24803 1
   25664    24802    24806 1
   25665    24803    24804 1
   25666    24804    24805 1
   25667    24804    24808 1
   25668    24805    24806 1
   25669    24805    24811 1
   25670    24809    24810 1
   25671    24809    24817 1
   25672    24810    24811 1
   25673    24810    24818 1
   25674    24811    24812 1
   25675    24812    24813 1
   25676    24812    24816 1
   25677    24813    24814 1
   25678    24814    24815 1
   25679    24815    24816 1
   25680    24816    24817 1
   25681    24817    24945 1
   25682    24819    24820 1
   25683    24819    24839 1
   25684    24819    24840 1
   25685    24820    24821 1
   25686    24820    24831 1
   25687    24820    24841 1
   25688    24821    24822 1
   25689    24821    24842 1
   25690    24821    24843 1
   25691    24822    24823 1
   25692    24822    24844 1
   25693    24822    24845 1
   25694    24823    24824 1
   25695    24823    24846 1
   25696    24823    24847 1
   25697    24824    24825 1
   25698    24824    24848 1
   25699    24824    24849 1
   25700    24825    24826 1
   25701    24825    24850 1
   25702    24825    24851 1
   25703    24826    24827 1
   25704    24826    24852 1
   25705    24826    24853 1
   25706    24827    24828 1
   25707    24827    24854 1
   25708    24827    24855 1
   25709    24828    24829 1
   25710    24828    24856 1
   25711    24828    24857 1
   25712    24829    24830 1
   25713    24829    24858 1
   25714    24829    24859 1
   25715    24830    24860 1
   25716    24830    24861 1
   25717    24830    24862 1
   25718    24831    24832 1
   25719    24831    24863 1
   25720    24831    24864 1
   25721    24832    24833 1
   25722    24832    24865 1
   25723    24832    24866 1
   25724    24833    24834 1
   25725    24833    24867 1
   25726    24833    24868 1
   25727    24834    24835 1
   25728    24834    24869 1
   25729    24834    24870 1
   25730    24835    24836 1
   25731    24835    24871 1
   25732    24835    24872 1
   25733    24836    24837 1
   25734    24836    24873 1
   25735    24836    24874 1
   25736    24837    24838 1
   25737    24837    24875 1
   25738    24837    24876 1
   25739    24838    24877 1
   25740    24838    24878 1
   25741    24838    24879 1
   25742    24880    24881 1
   25743    24880    24900 1
   25744    24880    24901 1
   25745    24881    24882 1
   25746    24881    24892 1
   25747    24881    24902 1
   25748    24882    24883 1
   25749    24882    24903 1
   25750    24882    24904 1
   25751    24883    24884 1
   25752    24883    24905 1
   25753    24883    24906 1
   25754    24884    24885 1
   25755    24884    24907 1
   25756    24884    24908 1
   25757    24885    24886 1
   25758    24885    24909 1
   25759    24885    24910 1
   25760    24886    24887 1
   25761    24886    24911 1
   25762    24886    24912 1
   25763    24887    24888 1
   25764    24887    24913 1
   25765    24887    24914 1
   25766    24888    24889 1
   25767    24888    24915 1
   25768    24888    24916 1
   25769    24889    24890 1
   25770    24889    24917 1
   25771    24889    24918 1
   25772    24890    24891 1
   25773    24890    24919 1
   25774    24890    24920 1
   25775    24891    24921 1
   25776    24891    24922 1
   25777    24891    24923 1
   25778    24892    24893 1
   25779    24892    24924 1
   25780    24892    24925 1
   25781    24893    24894 1
   25782    24893    24926 1
   25783    24893    24927 1
   25784    24894    24895 1
   25785    24894    24928 1
   25786    24894    24929 1
   25787    24895    24896 1
   25788    24895    24930 1
   25789    24895    24931 1
   25790    24896    24897 1
   25791    24896    24932 1
   25792    24896    24933 1
   25793    24897    24898 1
   25794    24897    24934 1
   25795    24897    24935 1
   25796    24898    24899 1
   25797    24898    24936 1
   25798    24898    24937 1
   25799    24899    24938 1
   25800    24899    24939 1
   25801    24899    24940 1
   25802    24941    24942 1
   25803    24941    24948 1
   25804    24941    24964 1
   25805    24941    25025 1
   25806    24942    24943 1
   25807    24942    24946 1
   25808    24943    24944 1
   25809    24943    24947 1
   25810    24944    24945 1
   25811    24945    24946 1
   25812    24946    24952 1
   25813    24947    24948 1
   25814    24947    24951 1
   25815    24948    24949 1
   25816    24949    24950 1
   25817    24949    24953 1
   25818    24950    24951 1
   25819    24950    24956 1
   25820    24954    24955 1
   25821    24954    24962 1
   25822    24955    24956 1
   25823    24955    24963 1
   25824    24956    24957 1
   25825    24957    24958 1
   25826    24957    24961 1
   25827    24958    24959 1
   25828    24959    24960 1
   25829    24960    24961 1
   25830    24961    24962 1
   25831    24962    25090 1
   25832    24964    24965 1
   25833    24964    24984 1
   25834    24964    24985 1
   25835    24965    24966 1
   25836    24965    24976 1
   25837    24965    24986 1
   25838    24966    24967 1
   25839    24966    24987 1
   25840    24966    24988 1
   25841    24967    24968 1
   25842    24967    24989 1
   25843    24967    24990 1
   25844    24968    24969 1
   25845    24968    24991 1
   25846    24968    24992 1
   25847    24969    24970 1
   25848    24969    24993 1
   25849    24969    24994 1
   25850    24970    24971 1
   25851    24970    24995 1
   25852    24970    24996 1
   25853    24971    24972 1
   25854    24971    24997 1
   25855    24971    24998 1
   25856    24972    24973 1
   25857    24972    24999 1
   25858    24972    25000 1
   25859    24973    24974 1
   25860    24973    25001 1
   25861    24973    25002 1
   25862    24974    24975 1
   25863    24974    25003 1
   25864    24974    25004 1
   25865    24975    25005 1
   25866    24975    25006 1
   25867    24975    25007 1
   25868    24976    24977 1
   25869    24976    25008 1
   25870    24976    25009 1
   25871    24977    24978 1
   25872    24977    25010 1
   25873    24977    25011 1
   25874    24978    24979 1
   25875    24978    25012 1
   25876    24978    25013 1
   25877    24979    24980 1
   25878    24979    25014 1
   25879    24979    25015 1
   25880    24980    24981 1
   25881    24980    25016 1
   25882    24980    25017 1
   25883    24981    24982 1
   25884    24981    25018 1
   25885    24981    25019 1
   25886    24982    24983 1
   25887    24982    25020 1
   25888    24982    25021 1
   25889    24983    25022 1
   25890    24983    25023 1
   25891    24983    25024 1
   25892    25025    25026 1
   25893    25025    25045 1
   25894    25025    25046 1
   25895    25026    25027 1
   25896    25026    25037 1
   25897    25026    25047 1
   25898    25027    25028 1
   25899    25027    25048 1
   25900    25027    25049 1
   25901    25028    25029 1
   25902    25028    25050 1
   25903    25028    25051 1
   25904    25029    25030 1
   25905    25029    25052 1
   25906    25029    25053 1
   25907    25030    25031 1
   25908    25030    25054 1
   25909    25030    25055 1
   25910    25031    25032 1
   25911    25031    25056 1
   25912    25031    25057 1
   25913    25032    25033 1
   25914    25032    25058 1
   25915    25032    25059 1
   25916    25033    25034 1
   25917    25033    25060 1
   25918    25033    25061 1
   25919    25034    25035 1
   25920    25034    25062 1
   25921    25034    25063 1
   25922    25035    25036 1
   25923    25035    25064 1
   25924    25035    25065 1
   25925    25036    25066 1
   25926    25036    25067 1
   25927    25036    25068 1
   25928    25037    25038 1
   25929    25037    25069 1
   25930    25037    25070 1
   25931    25038    25039 1
   25932    25038    25071 1
   25933    25038    25072 1
   25934    25039    25040 1
   25935    25039    25073 1
   25936    25039    25074 1
   25937    25040    25041 1
   25938    25040    25075 1
   25939    25040    25076 1
   25940    25041    25042 1
   25941    25041    25077 1
   25942    25041    25078 1
   25943    25042    25043 1
   25944    25042    25079 1
   25945    25042    25080 1
   25946    25043    25044 1
   25947    25043    25081 1
   25948    25043    25082 1
   25949    25044    25083 1
   25950    25044    25084 1
   25951    25044    25085 1
   25952    25086    25087 1
   25953    25086    25093 1
   25954    25086    25109 1
   25955    25086    25170 1
   25956    25087    25088 1
   25957    25087    25091 1
   25958    25088    25089 1
   25959    25088    25092 1
   25960    25089    25090 1
   25961    25090    25091 1
   25962    25091    25097 1
   25963    25092    25093 1
   25964    25092    25096 1
   25965    25093    25094 1
   25966    25094    25095 1
   25967    25094    25098 1
   25968    25095    25096 1
   25969    25095    25101 1
   25970    25099    25100 1
   25971    25099    25107 1
   25972    25100    25101 1
   25973    25100    25108 1
   25974    25101    25102 1
   25975    25102    25103 1
   25976    25102    25106 1
   25977    25103    25104 1
   25978    25104    25105 1
   25979    25105    25106 1
   25980    25106    25107 1
   25981    25107    25235 1
   25982    25109    25110 1
   25983    25109    25129 1
   25984    25109    25130 1
   25985    25110    25111 1
   25986    25110    25121 1
   25987    25110    25131 1
   25988    25111    25112 1
   25989    25111    25132 1
   25990    25111    25133 1
   25991    25112    25113 1
   25992    25112    25134 1
   25993    25112    25135 1
   25994    25113    25114 1
   25995    25113    25136 1
   25996    25113    25137 1
   25997    25114    25115 1
   25998    25114    25138 1
   25999    25114    25139 1
   26000    25115    25116 1
   26001    25115    25140 1
   26002    25115    25141 1
   26003    25116    25117 1
   26004    25116    25142 1
   26005    25116    25143 1
   26006    25117    25118 1
   26007    25117    25144 1
   26008    25117    25145 1
   26009    25118    25119 1
   26010    25118    25146 1
   26011    25118    25147 1
   26012    25119    25120 1
   26013    25119    25148 1
   26014    25119    25149 1
   26015    25120    25150 1
   26016    25120    25151 1
   26017    25120    25152 1
   26018    25121    25122 1
   26019    25121    25153 1
   26020    25121    25154 1
   26021    25122    25123 1
   26022    25122    25155 1
   26023    25122    25156 1
   26024    25123    25124 1
   26025    25123    25157 1
   26026    25123    25158 1
   26027    25124    25125 1
   26028    25124    25159 1
   26029    25124    25160 1
   26030    25125    25126 1
   26031    25125    25161 1
   26032    25125    25162 1
   26033    25126    25127 1
   26034    25126    25163 1
   26035    25126    25164 1
   26036    25127    25128 1
   26037    25127    25165 1
   26038    25127    25166 1
   26039    25128    25167 1
   26040    25128    25168 1
   26041    25128    25169 1
   26042    25170    25171 1
   26043    25170    25190 1
   26044    25170    25191 1
   26045    25171    25172 1
   26046    25171    25182 1
   26047    25171    25192 1
   26048    25172    25173 1
   26049    25172    25193 1
   26050    25172    25194 1
   26051    25173    25174 1
   26052    25173    25195 1
   26053    25173    25196 1
   26054    25174    25175 1
   26055    25174    25197 1
   26056    25174    25198 1
   26057    25175    25176 1
   26058    25175    25199 1
   26059    25175    25200 1
   26060    25176    25177 1
   26061    25176    25201 1
   26062    25176    25202 1
   26063    25177    25178 1
   26064    25177    25203 1
   26065    25177    25204 1
   26066    25178    25179 1
   26067    25178    25205 1
   26068    25178    25206 1
   26069    25179    25180 1
   26070    25179    25207 1
   26071    25179    25208 1
   26072    25180    25181 1
   26073    25180    25209 1
   26074    25180    25210 1
   26075    25181    25211 1
   26076    25181    25212 1
   26077    25181    25213 1
   26078    25182    25183 1
   26079    25182    25214 1
   26080    25182    25215 1
   26081    25183    25184 1
   26082    25183    25216 1
   26083    25183    25217 1
   26084    25184    25185 1
   26085    25184    25218 1
   26086    25184    25219 1
   26087    25185    25186 1
   26088    25185    25220 1
   26089    25185    25221 1
   26090    25186    25187 1
   26091    25186    25222 1
   26092    25186    25223 1
   26093    25187    25188 1
   26094    25187    25224 1
   26095    25187    25225 1
   26096    25188    25189 1
   26097    25188    25226 1
   26098    25188    25227 1
   26099    25189    25228 1
   26100    25189    25229 1
   26101    25189    25230 1
   26102    25231    25232 1
   26103    25231    25238 1
   26104    25231    25254 1
   26105    25231    25315 1
   26106    25232    25233 1
   26107    25232    25236 1
   26108    25233    25234 1
   26109    25233    25237 1
   26110    25234    25235 1
   26111    25235    25236 1
   26112    25236    25242 1
   26113    25237    25238 1
   26114    25237    25241 1
   26115    25238    25239 1
   26116    25239    25240 1
   26117    25239    25243 1
   26118    25240    25241 1
   26119    25240    25246 1
   26120    25244    25245 1
   26121    25244    25252 1
   26122    25245    25246 1
   26123    25245    25253 1
   26124    25246    25247 1
   26125    25247    25248 1
   26126    25247    25251 1
   26127    25248    25249 1
   26128    25249    25250 1
   26129    25250    25251 1
   26130    25251    25252 1
   26131    25252    25380 1
   26132    25254    25255 1
   26133    25254    25274 1
   26134    25254    25275 1
   26135    25255    25256 1
   26136    25255    25266 1
   26137    25255    25276 1
   26138    25256    25257 1
   26139    25256    25277 1
   26140    25256    25278 1
   26141    25257    25258 1
   26142    25257    25279 1
   26143    25257    25280 1
   26144    25258    25259 1
   26145    25258    25281 1
   26146    25258    25282 1
   26147    25259    25260 1
   26148    25259    25283 1
   26149    25259    25284 1
   26150    25260    25261 1
   26151    25260    25285 1
   26152    25260    25286 1
   26153    25261    25262 1
   26154    25261    25287 1
   26155    25261    25288 1
   26156    25262    25263 1
   26157    25262    25289 1
   26158    25262    25290 1
   26159    25263    25264 1
   26160    25263    25291 1
   26161    25263    25292 1
   26162    25264    25265 1
   26163    25264    25293 1
   26164    25264    25294 1
   26165    25265    25295 1
   26166    25265    25296 1
   26167    25265    25297 1
   26168    25266    25267 1
   26169    25266    25298 1
   26170    25266    25299 1
   26171    25267    25268 1
   26172    25267    25300 1
   26173    25267    25301 1
   26174    25268    25269 1
   26175    25268    25302 1
   26176    25268    25303 1
   26177    25269    25270 1
   26178    25269    25304 1
   26179    25269    25305 1
   26180    25270    25271 1
   26181    25270    25306 1
   26182    25270    25307 1
   26183    25271    25272 1
   26184    25271    25308 1
   26185    25271    25309 1
   26186    25272    25273 1
   26187    25272    25310 1
   26188    25272    25311 1
   26189    25273    25312 1
   26190    25273    25313 1
   26191    25273    25314 1
   26192    25315    25316 1
   26193    25315    25335 1
   26194    25315    25336 1
   26195    25316    25317 1
   26196    25316    25327 1
   26197    25316    25337 1
   26198    25317    25318 1
   26199    25317    25338 1
   26200    25317    25339 1
   26201    25318    25319 1
   26202    25318    25340 1
   26203    25318    25341 1
   26204    25319    25320 1
   26205    25319    25342 1
   26206    25319    25343 1
   26207    25320    25321 1
   26208    25320    25344 1
   26209    25320    25345 1
   26210    25321    25322 1
   26211    25321    25346 1
   26212    25321    25347 1
   26213    25322    25323 1
   26214    25322    25348 1
   26215    25322    25349 1
   26216    25323    25324 1
   26217    25323    25350 1
   26218    25323    25351 1
   26219    25324    25325 1
   26220    25324    25352 1
   26221    25324    25353 1
   26222    25325    25326 1
   26223    25325    25354 1
   26224    25325    25355 1
   26225    25326    25356 1
   26226    25326    25357 1
   26227    25326    25358 1
   26228    25327    25328 1
   26229    25327    25359 1
   26230    25327    25360 1
   26231    25328    25329 1
   26232    25328    25361 1
   26233    25328    25362 1
   26234    25329    25330 1
   26235    25329    25363 1
   26236    25329    25364 1
   26237    25330    25331 1
   26238    25330    25365 1
   26239    25330    25366 1
   26240    25331    25332 1
   26241    25331    25367 1
   26242    25331    25368 1
   26243    25332    25333 1
   26244    25332    25369 1
   26245    25332    25370 1
   26246    25333    25334 1
   26247    25333    25371 1
   26248    25333    25372 1
   26249    25334    25373 1
   26250    25334    25374 1
   26251    25334    25375 1
   26252    25376    25377 1
   26253    25376    25383 1
   26254    25376    25399 1
   26255    25376    25460 1
   26256    25377    25378 1
   26257    25377    25381 1
   26258    25378    25379 1
   26259    25378    25382 1
   26260    25379    25380 1
   26261    25380    25381 1
   26262    25381    25387 1
   26263    25382    25383 1
   26264    25382    25386 1
   26265    25383    25384 1
   26266    25384    25385 1
   26267    25384    25388 1
   26268    25385    25386 1
   26269    25385    25391 1
   26270    25389    25390 1
   26271    25389    25397 1
   26272    25390    25391 1
   26273    25390    25398 1
   26274    25391    25392 1
   26275    25392    25393 1
   26276    25392    25396 1
   26277    25393    25394 1
   26278    25394    25395 1
   26279    25395    25396 1
   26280    25396    25397 1
   26281    25397    25525 1
   26282    25399    25400 1
   26283    25399    25419 1
   26284    25399    25420 1
   26285    25400    25401 1
   26286    25400    25411 1
   26287    25400    25421 1
   26288    25401    25402 1
   26289    25401    25422 1
   26290    25401    25423 1
   26291    25402    25403 1
   26292    25402    25424 1
   26293    25402    25425 1
   26294    25403    25404 1
   26295    25403    25426 1
   26296    25403    25427 1
   26297    25404    25405 1
   26298    25404    25428 1
   26299    25404    25429 1
   26300    25405    25406 1
   26301    25405    25430 1
   26302    25405    25431 1
   26303    25406    25407 1
   26304    25406    25432 1
   26305    25406    25433 1
   26306    25407    25408 1
   26307    25407    25434 1
   26308    25407    25435 1
   26309    25408    25409 1
   26310    25408    25436 1
   26311    25408    25437 1
   26312    25409    25410 1
   26313    25409    25438 1
   26314    25409    25439 1
   26315    25410    25440 1
   26316    25410    25441 1
   26317    25410    25442 1
   26318    25411    25412 1
   26319    25411    25443 1
   26320    25411    25444 1
   26321    25412    25413 1
   26322    25412    25445 1
   26323    25412    25446 1
   26324    25413    25414 1
   26325    25413    25447 1
   26326    25413    25448 1
   26327    25414    25415 1
   26328    25414    25449 1
   26329    25414    25450 1
   26330    25415    25416 1
   26331    25415    25451 1
   26332    25415    25452 1
   26333    25416    25417 1
   26334    25416    25453 1
   26335    25416    25454 1
   26336    25417    25418 1
   26337    25417    25455 1
   26338    25417    25456 1
   26339    25418    25457 1
   26340    25418    25458 1
   26341    25418    25459 1
   26342    25460    25461 1
   26343    25460    25480 1
   26344    25460    25481 1
   26345    25461    25462 1
   26346    25461    25472 1
   26347    25461    25482 1
   26348    25462    25463 1
   26349    25462    25483 1
   26350    25462    25484 1
   26351    25463    25464 1
   26352    25463    25485 1
   26353    25463    25486 1
   26354    25464    25465 1
   26355    25464    25487 1
   26356    25464    25488 1
   26357    25465    25466 1
   26358    25465    25489 1
   26359    25465    25490 1
   26360    25466    25467 1
   26361    25466    25491 1
   26362    25466    25492 1
   26363    25467    25468 1
   26364    25467    25493 1
   26365    25467    25494 1
   26366    25468    25469 1
   26367    25468    25495 1
   26368    25468    25496 1
   26369    25469    25470 1
   26370    25469    25497 1
   26371    25469    25498 1
   26372    25470    25471 1
   26373    25470    25499 1
   26374    25470    25500 1
   26375    25471    25501 1
   26376    25471    25502 1
   26377    25471    25503 1
   26378    25472    25473 1
   26379    25472    25504 1
   26380    25472    25505 1
   26381    25473    25474 1
   26382    25473    25506 1
   26383    25473    25507 1
   26384    25474    25475 1
   26385    25474    25508 1
   26386    25474    25509 1
   26387    25475    25476 1
   26388    25475    25510 1
   26389    25475    25511 1
   26390    25476    25477 1
   26391    25476    25512 1
   26392    25476    25513 1
   26393    25477    25478 1
   26394    25477    25514 1
   26395    25477    25515 1
   26396    25478    25479 1
   26397    25478    25516 1
   26398    25478    25517 1
   26399    25479    25518 1
   26400    25479    25519 1
   26401    25479    25520 1
   26402    25521    25522 1
   26403    25521    25528 1
   26404    25521    25544 1
   26405    25521    25605 1
   26406    25522    25523 1
   26407    25522    25526 1
   26408    25523    25524 1
   26409    25523    25527 1
   26410    25524    25525 1
   26411    25525    25526 1
   26412    25526    25532 1
   26413    25527    25528 1
   26414    25527    25531 1
   26415    25528    25529 1
   26416    25529    25530 1
   26417    25529    25533 1
   26418    25530    25531 1
   26419    25530    25536 1
   26420    25534    25535 1
   26421    25534    25542 1
   26422    25535    25536 1
   26423    25535    25543 1
   26424    25536    25537 1
   26425    25537    25538 1
   26426    25537    25541 1
   26427    25538    25539 1
   26428    25539    25540 1
   26429    25540    25541 1
   26430    25541    25542 1
   26431    25542    25670 1
   26432    25544    25545 1
   26433    25544    25564 1
   26434    25544    25565 1
   26435    25545    25546 1
   26436    25545    25556 1
   26437    25545    25566 1
   26438    25546    25547 1
   26439    25546    25567 1
   26440    25546    25568 1
   26441    25547    25548 1
   26442    25547    25569 1
   26443    25547    25570 1
   26444    25548    25549 1
   26445    25548    25571 1
   26446    25548    25572 1
   26447    25549    25550 1
   26448    25549    25573 1
   26449    25549    25574 1
   26450    25550    25551 1
   26451    25550    25575 1
   26452    25550    25576 1
   26453    25551    25552 1
   26454    25551    25577 1
   26455    25551    25578 1
   26456    25552    25553 1
   26457    25552    25579 1
   26458    25552    25580 1
   26459    25553    25554 1
   26460    25553    25581 1
   26461    25553    25582 1
   26462    25554    25555 1
   26463    25554    25583 1
   26464    25554    25584 1
   26465    25555    25585 1
   26466    25555    25586 1
   26467    25555    25587 1
   26468    25556    25557 1
   26469    25556    25588 1
   26470    25556    25589 1
   26471    25557    25558 1
   26472    25557    25590 1
   26473    25557    25591 1
   26474    25558    25559 1
   26475    25558    25592 1
   26476    25558    25593 1
   26477    25559    25560 1
   26478    25559    25594 1
   26479    25559    25595 1
   26480    25560    25561 1
   26481    25560    25596 1
   26482    25560    25597 1
   26483    25561    25562 1
   26484    25561    25598 1
   26485    25561    25599 1
   26486    25562    25563 1
   26487    25562    25600 1
   26488    25562    25601 1
   26489    25563    25602 1
   26490    25563    25603 1
   26491    25563    25604 1
   26492    25605    25606 1
   26493    25605    25625 1
   26494    25605    25626 1
   26495    25606    25607 1
   26496    25606    25617 1
   26497    25606    25627 1
   26498    25607    25608 1
   26499    25607    25628 1
   26500    25607    25629 1
   26501    25608    25609 1
   26502    25608    25630 1
   26503    25608    25631 1
   26504    25609    25610 1
   26505    25609    25632 1
   26506    25609    25633 1
   26507    25610    25611 1
   26508    25610    25634 1
   26509    25610    25635 1
   26510    25611    25612 1
   26511    25611    25636 1
   26512    25611    25637 1
   26513    25612    25613 1
   26514    25612    25638 1
   26515    25612    25639 1
   26516    25613    25614 1
   26517    25613    25640 1
   26518    25613    25641 1
   26519    25614    25615 1
   26520    25614    25642 1
   26521    25614    25643 1
   26522    25615    25616 1
   26523    25615    25644 1
   26524    25615    25645 1
   26525    25616    25646 1
   26526    25616    25647 1
   26527    25616    25648 1
   26528    25617    25618 1
   26529    25617    25649 1
   26530    25617    25650 1
   26531    25618    25619 1
   26532    25618    25651 1
   26533    25618    25652 1
   26534    25619    25620 1
   26535    25619    25653 1
   26536    25619    25654 1
   26537    25620    25621 1
   26538    25620    25655 1
   26539    25620    25656 1
   26540    25621    25622 1
   26541    25621    25657 1
   26542    25621    25658 1
   26543    25622    25623 1
   26544    25622    25659 1
   26545    25622    25660 1
   26546    25623    25624 1
   26547    25623    25661 1
   26548    25623    25662 1
   26549    25624    25663 1
   26550    25624    25664 1
   26551    25624    25665 1
   26552    25666    25667 1
   26553    25666    25673 1
   26554    25666    25689 1
   26555    25666    25750 1
   26556    25667    25668 1
   26557    25667    25671 1
   26558    25668    25669 1
   26559    25668    25672 1
   26560    25669    25670 1
   26561    25670    25671 1
   26562    25671    25677 1
   26563    25672    25673 1
   26564    25672    25676 1
   26565    25673    25674 1
   26566    25674    25675 1
   26567    25674    25678 1
   26568    25675    25676 1
   26569    25675    25681 1
   26570    25679    25680 1
   26571    25679    25687 1
   26572    25680    25681 1
   26573    25680    25688 1
   26574    25681    25682 1
   26575    25682    25683 1
   26576    25682    25686 1
   26577    25683    25684 1
   26578    25684    25685 1
   26579    25685    25686 1
   26580    25686    25687 1
   26581    25687    25815 1
   26582    25689    25690 1
   26583    25689    25709 1
   26584    25689    25710 1
   26585    25690    25691 1
   26586    25690    25701 1
   26587    25690    25711 1
   26588    25691    25692 1
   26589    25691    25712 1
   26590    25691    25713 1
   26591    25692    25693 1
   26592    25692    25714 1
   26593    25692    25715 1
   26594    25693    25694 1
   26595    25693    25716 1
   26596    25693    25717 1
   26597    25694    25695 1
   26598    25694    25718 1
   26599    25694    25719 1
   26600    25695    25696 1
   26601    25695    25720 1
   26602    25695    25721 1
   26603    25696    25697 1
   26604    25696    25722 1
   26605    25696    25723 1
   26606    25697    25698 1
   26607    25697    25724 1
   26608    25697    25725 1
   26609    25698    25699 1
   26610    25698    25726 1
   26611    25698    25727 1
   26612    25699    25700 1
   26613    25699    25728 1
   26614    25699    25729 1
   26615    25700    25730 1
   26616    25700    25731 1
   26617    25700    25732 1
   26618    25701    25702 1
   26619    25701    25733 1
   26620    25701    25734 1
   26621    25702    25703 1
   26622    25702    25735 1
   26623    25702    25736 1
   26624    25703    25704 1
   26625    25703    25737 1
   26626    25703    25738 1
   26627    25704    25705 1
   26628    25704    25739 1
   26629    25704    25740 1
   26630    25705    25706 1
   26631    25705    25741 1
   26632    25705    25742 1
   26633    25706    25707 1
   26634    25706    25743 1
   26635    25706    25744 1
   26636    25707    25708 1
   26637    25707    25745 1
   26638    25707    25746 1
   26639    25708    25747 1
   26640    25708    25748 1
   26641    25708    25749 1
   26642    25750    25751 1
   26643    25750    25770 1
   26644    25750    25771 1
   26645    25751    25752 1
   26646    25751    25762 1
   26647    25751    25772 1
   26648    25752    25753 1
   26649    25752    25773 1
   26650    25752    25774 1
   26651    25753    25754 1
   26652    25753    25775 1
   26653    25753    25776 1
   26654    25754    25755 1
   26655    25754    25777 1
   26656    25754    25778 1
   26657    25755    25756 1
   26658    25755    25779 1
   26659    25755    25780 1
   26660    25756    25757 1
   26661    25756    25781 1
   26662    25756    25782 1
   26663    25757    25758 1
   26664    25757    25783 1
   26665    25757    25784 1
   26666    25758    25759 1
   26667    25758    25785 1
   26668    25758    25786 1
   26669    25759    25760 1
   26670    25759    25787 1
   26671    25759    25788 1
   26672    25760    25761 1
   26673    25760    25789 1
   26674    25760    25790 1
   26675    25761    25791 1
   26676    25761    25792 1
   26677    25761    25793 1
   26678    25762    25763 1
   26679    25762    25794 1
   26680    25762    25795 1
   26681    25763    25764 1
   26682    25763    25796 1
   26683    25763    25797 1
   26684    25764    25765 1
   26685    25764    25798 1
   26686    25764    25799 1
   26687    25765    25766 1
   26688    25765    25800 1
   26689    25765    25801 1
   26690    25766    25767 1
   26691    25766    25802 1
   26692    25766    25803 1
   26693    25767    25768 1
   26694    25767    25804 1
   26695    25767    25805 1
   26696    25768    25769 1
   26697    25768    25806 1
   26698    25768    25807 1
   26699    25769    25808 1
   26700    25769    25809 1
   26701    25769    25810 1
   26702    25811    25812 1
   26703    25811    25818 1
   26704    25811    25834 1
   26705    25811    25895 1
   26706    25812    25813 1
   26707    25812    25816 1
   26708    25813    25814 1
   26709    25813    25817 1
   26710    25814    25815 1
   26711    25815    25816 1
   26712    25816    25822 1
   26713    25817    25818 1
   26714    25817    25821 1
   26715    25818    25819 1
   26716    25819    25820 1
   26717    25819    25823 1
   26718    25820    25821 1
   26719    25820    25826 1
   26720    25824    25825 1
   26721    25824    25832 1
   26722    25825    25826 1
   26723    25825    25833 1
   26724    25826    25827 1
   26725    25827    25828 1
   26726    25827    25831 1
   26727    25828    25829 1
   26728    25829    25830 1
   26729    25830    25831 1
   26730    25831    25832 1
   26731    25832    25960 1
   26732    25834    25835 1
   26733    25834    25854 1
   26734    25834    25855 1
   26735    25835    25836 1
   26736    25835    25846 1
   26737    25835    25856 1
   26738    25836    25837 1
   26739    25836    25857 1
   26740    25836    25858 1
   26741    25837    25838 1
   26742    25837    25859 1
   26743    25837    25860 1
   26744    25838    25839 1
   26745    25838    25861 1
   26746    25838    25862 1
   26747    25839    25840 1
   26748    25839    25863 1
   26749    25839    25864 1
   26750    25840    25841 1
   26751    25840    25865 1
   26752    25840    25866 1
   26753    25841    25842 1
   26754    25841    25867 1
   26755    25841    25868 1
   26756    25842    25843 1
   26757    25842    25869 1
   26758    25842    25870 1
   26759    25843    25844 1
   26760    25843    25871 1
   26761    25843    25872 1
   26762    25844    25845 1
   26763    25844    25873 1
   26764    25844    25874 1
   26765    25845    25875 1
   26766    25845    25876 1
   26767    25845    25877 1
   26768    25846    25847 1
   26769    25846    25878 1
   26770    25846    25879 1
   26771    25847    25848 1
   26772    25847    25880 1
   26773    25847    25881 1
   26774    25848    25849 1
   26775    25848    25882 1
   26776    25848    25883 1
   26777    25849    25850 1
   26778    25849    25884 1
   26779    25849    25885 1
   26780    25850    25851 1
   26781    25850    25886 1
   26782    25850    25887 1
   26783    25851    25852 1
   26784    25851    25888 1
   26785    25851    25889 1
   26786    25852    25853 1
   26787    25852    25890 1
   26788    25852    25891 1
   26789    25853    25892 1
   26790    25853    25893 1
   26791    25853    25894 1
   26792    25895    25896 1
   26793    25895    25915 1
   26794    25895    25916 1
   26795    25896    25897 1
   26796    25896    25907 1
   26797    25896    25917 1
   26798    25897    25898 1
   26799    25897    25918 1
   26800    25897    25919 1
   26801    25898    25899 1
   26802    25898    25920 1
   26803    25898    25921 1
   26804    25899    25900 1
   26805    25899    25922 1
   26806    25899    25923 1
   26807    25900    25901 1
   26808    25900    25924 1
   26809    25900    25925 1
   26810    25901    25902 1
   26811    25901    25926 1
   26812    25901    25927 1
   26813    25902    25903 1
   26814    25902    25928 1
   26815    25902    25929 1
   26816    25903    25904 1
   26817    25903    25930 1
   26818    25903    25931 1
   26819    25904    25905 1
   26820    25904    25932 1
   26821    25904    25933 1
   26822    25905    25906 1
   26823    25905    25934 1
   26824    25905    25935 1
   26825    25906    25936 1
   26826    25906    25937 1
   26827    25906    25938 1
   26828    25907    25908 1
   26829    25907    25939 1
   26830    25907    25940 1
   26831    25908    25909 1
   26832    25908    25941 1
   26833    25908    25942 1
   26834    25909    25910 1
   26835    25909    25943 1
   26836    25909    25944 1
   26837    25910    25911 1
   26838    25910    25945 1
   26839    25910    25946 1
   26840    25911    25912 1
   26841    25911    25947 1
   26842    25911    25948 1
   26843    25912    25913 1
   26844    25912    25949 1
   26845    25912    25950 1
   26846    25913    25914 1
   26847    25913    25951 1
   26848    25913    25952 1
   26849    25914    25953 1
   26850    25914    25954 1
   26851    25914    25955 1
   26852    25956    25957 1
   26853    25956    25963 1
   26854    25956    25979 1
   26855    25956    26040 1
   26856    25957    25958 1
   26857    25957    25961 1
   26858    25958    25959 1
   26859    25958    25962 1
   26860    25959    25960 1
   26861    25960    25961 1
   26862    25961    25967 1
   26863    25962    25963 1
   26864    25962    25966 1
   26865    25963    25964 1
   26866    25964    25965 1
   26867    25964    25968 1
   26868    25965    25966 1
   26869    25965    25971 1
   26870    25969    25970 1
   26871    25969    25977 1
   26872    25970    25971 1
   26873    25970    25978 1
   26874    25971    25972 1
   26875    25972    25973 1
   26876    25972    25976 1
   26877    25973    25974 1
   26878    25974    25975 1
   26879    25975    25976 1
   26880    25976    25977 1
   26881    25977    26105 1
   26882    25979    25980 1
   26883    25979    25999 1
   26884    25979    26000 1
   26885    25980    25981 1
   26886    25980    25991 1
   26887    25980    26001 1
   26888    25981    25982 1
   26889    25981    26002 1
   26890    25981    26003 1
   26891    25982    25983 1
   26892    25982    26004 1
   26893    25982    26005 1
   26894    25983    25984 1
   26895    25983    26006 1
   26896    25983    26007 1
   26897    25984    25985 1
   26898    25984    26008 1
   26899    25984    26009 1
   26900    25985    25986 1
   26901    25985    26010 1
   26902    25985    26011 1
   26903    25986    25987 1
   26904    25986    26012 1
   26905    25986    26013 1
   26906    25987    25988 1
   26907    25987    26014 1
   26908    25987    26015 1
   26909    25988    25989 1
   26910    25988    26016 1
   26911    25988    26017 1
   26912    25989    25990 1
   26913    25989    26018 1
   26914    25989    26019 1
   26915    25990    26020 1
   26916    25990    26021 1
   26917    25990    26022 1
   26918    25991    25992 1
   26919    25991    26023 1
   26920    25991    26024 1
   26921    25992    25993 1
   26922    25992    26025 1
   26923    25992    26026 1
   26924    25993    25994 1
   26925    25993    26027 1
   26926    25993    26028 1
   26927    25994    25995 1
   26928    25994    26029 1
   26929    25994    26030 1
   26930    25995    25996 1
   26931    25995    26031 1
   26932    25995    26032 1
   26933    25996    25997 1
   26934    25996    26033 1
   26935    25996    26034 1
   26936    25997    25998 1
   26937    25997    26035 1
   26938    25997    26036 1
   26939    25998    26037 1
   26940    25998    26038 1
   26941    25998    26039 1
   26942    26040    26041 1
   26943    26040    26060 1
   26944    26040    26061 1
   26945    26041    26042 1
   26946    26041    26052 1
   26947    26041    26062 1
   26948    26042    26043 1
   26949    26042    26063 1
   26950    26042    26064 1
   26951    26043    26044 1
   26952    26043    26065 1
   26953    26043    26066 1
   26954    26044    26045 1
   26955    26044    26067 1
   26956    26044    26068 1
   26957    26045    26046 1
   26958    26045    26069 1
   26959    26045    26070 1
   26960    26046    26047 1
   26961    26046    26071 1
   26962    26046    26072 1
   26963    26047    26048 1
   26964    26047    26073 1
   26965    26047    26074 1
   26966    26048    26049 1
   26967    26048    26075 1
   26968    26048    26076 1
   26969    26049    26050 1
   26970    26049    26077 1
   26971    26049    26078 1
   26972    26050    26051 1
   26973    26050    26079 1
   26974    26050    26080 1
   26975    26051    26081 1
   26976    26051    26082 1
   26977    26051    26083 1
   26978    26052    26053 1
   26979    26052    26084 1
   26980    26052    26085 1
   26981    26053    26054 1
   26982    26053    26086 1
   26983    26053    26087 1
   26984    26054    26055 1
   26985    26054    26088 1
   26986    26054    26089 1
   26987    26055    26056 1
   26988    26055    26090 1
   26989    26055    26091 1
   26990    26056    26057 1
   26991    26056    26092 1
   26992    26056    26093 1
   26993    26057    26058 1
   26994    26057    26094 1
   26995    26057    26095 1
   26996    26058    26059 1
   26997    26058    26096 1
   26998    26058    26097 1
   26999    26059    26098 1
   27000    26059    26099 1
   27001    26059    26100 1
   27002    26101    26102 1
   27003    26101    26108 1
   27004    26101    26124 1
   27005    26101    26185 1
   27006    26102    26103 1
   27007    26102    26106 1
   27008    26103    26104 1
   27009    26103    26107 1
   27010    26104    26105 1
   27011    26105    26106 1
   27012    26106    26112 1
   27013    26107    26108 1
   27014    26107    26111 1
   27015    26108    26109 1
   27016    26109    26110 1
   27017    26109    26113 1
   27018    26110    26111 1
   27019    26110    26116 1
   27020    26114    26115 1
   27021    26114    26122 1
   27022    26115    26116 1
   27023    26115    26123 1
   27024    26116    26117 1
   27025    26117    26118 1
   27026    26117    26121 1
   27027    26118    26119 1
   27028    26119    26120 1
   27029    26120    26121 1
   27030    26121    26122 1
   27031    26122    26250 1
   27032    26124    26125 1
   27033    26124    26144 1
   27034    26124    26145 1
   27035    26125    26126 1
   27036    26125    26136 1
   27037    26125    26146 1
   27038    26126    26127 1
   27039    26126    26147 1
   27040    26126    26148 1
   27041    26127    26128 1
   27042    26127    26149 1
   27043    26127    26150 1
   27044    26128    26129 1
   27045    26128    26151 1
   27046    26128    26152 1
   27047    26129    26130 1
   27048    26129    26153 1
   27049    26129    26154 1
   27050    26130    26131 1
   27051    26130    26155 1
   27052    26130    26156 1
   27053    26131    26132 1
   27054    26131    26157 1
   27055    26131    26158 1
   27056    26132    26133 1
   27057    26132    26159 1
   27058    26132    26160 1
   27059    26133    26134 1
   27060    26133    26161 1
   27061    26133    26162 1
   27062    26134    26135 1
   27063    26134    26163 1
   27064    26134    26164 1
   27065    26135    26165 1
   27066    26135    26166 1
   27067    26135    26167 1
   27068    26136    26137 1
   27069    26136    26168 1
   27070    26136    26169 1
   27071    26137    26138 1
   27072    26137    26170 1
   27073    26137    26171 1
   27074    26138    26139 1
   27075    26138    26172 1
   27076    26138    26173 1
   27077    26139    26140 1
   27078    26139    26174 1
   27079    26139    26175 1
   27080    26140    26141 1
   27081    26140    26176 1
   27082    26140    26177 1
   27083    26141    26142 1
   27084    26141    26178 1
   27085    26141    26179 1
   27086    26142    26143 1
   27087    26142    26180 1
   27088    26142    26181 1
   27089    26143    26182 1
   27090    26143    26183 1
   27091    26143    26184 1
   27092    26185    26186 1
   27093    26185    26205 1
   27094    26185    26206 1
   27095    26186    26187 1
   27096    26186    26197 1
   27097    26186    26207 1
   27098    26187    26188 1
   27099    26187    26208 1
   27100    26187    26209 1
   27101    26188    26189 1
   27102    26188    26210 1
   27103    26188    26211 1
   27104    26189    26190 1
   27105    26189    26212 1
   27106    26189    26213 1
   27107    26190    26191 1
   27108    26190    26214 1
   27109    26190    26215 1
   27110    26191    26192 1
   27111    26191    26216 1
   27112    26191    26217 1
   27113    26192    26193 1
   27114    26192    26218 1
   27115    26192    26219 1
   27116    26193    26194 1
   27117    26193    26220 1
   27118    26193    26221 1
   27119    26194    26195 1
   27120    26194    26222 1
   27121    26194    26223 1
   27122    26195    26196 1
   27123    26195    26224 1
   27124    26195    26225 1
   27125    26196    26226 1
   27126    26196    26227 1
   27127    26196    26228 1
   27128    26197    26198 1
   27129    26197    26229 1
   27130    26197    26230 1
   27131    26198    26199 1
   27132    26198    26231 1
   27133    26198    26232 1
   27134    26199    26200 1
   27135    26199    26233 1
   27136    26199    26234 1
   27137    26200    26201 1
   27138    26200    26235 1
   27139    26200    26236 1
   27140    26201    26202 1
   27141    26201    26237 1
   27142    26201    26238 1
   27143    26202    26203 1
   27144    26202    26239 1
   27145    26202    26240 1
   27146    26203    26204 1
   27147    26203    26241 1
   27148    26203    26242 1
   27149    26204    26243 1
   27150    26204    26244 1
   27151    26204    26245 1
   27152    26246    26247 1
   27153    26246    26253 1
   27154    26246    26269 1
   27155    26246    26330 1
   27156    26247    26248 1
   27157    26247    26251 1
   27158    26248    26249 1
   27159    26248    26252 1
   27160    26249    26250 1
   27161    26250    26251 1
   27162    26251    26257 1
   27163    26252    26253 1
   27164    26252    26256 1
   27165    26253    26254 1
   27166    26254    26255 1
   27167    26254    26258 1
   27168    26255    26256 1
   27169    26255    26261 1
   27170    26259    26260 1
   27171    26259    26267 1
   27172    26260    26261 1
   27173    26260    26268 1
   27174    26261    26262 1
   27175    26262    26263 1
   27176    26262    26266 1
   27177    26263    26264 1
   27178    26264    26265 1
   27179    26265    26266 1
   27180    26266    26267 1
   27181    26267    26395 1
   27182    26269    26270 1
   27183    26269    26289 1
   27184    26269    26290 1
   27185    26270    26271 1
   27186    26270    26281 1
   27187    26270    26291 1
   27188    26271    26272 1
   27189    26271    26292 1
   27190    26271    26293 1
   27191    26272    26273 1
   27192    26272    26294 1
   27193    26272    26295 1
   27194    26273    26274 1
   27195    26273    26296 1
   27196    26273    26297 1
   27197    26274    26275 1
   27198    26274    26298 1
   27199    26274    26299 1
   27200    26275    26276 1
   27201    26275    26300 1
   27202    26275    26301 1
   27203    26276    26277 1
   27204    26276    26302 1
   27205    26276    26303 1
   27206    26277    26278 1
   27207    26277    26304 1
   27208    26277    26305 1
   27209    26278    26279 1
   27210    26278    26306 1
   27211    26278    26307 1
   27212    26279    26280 1
   27213    26279    26308 1
   27214    26279    26309 1
   27215    26280    26310 1
   27216    26280    26311 1
   27217    26280    26312 1
   27218    26281    26282 1
   27219    26281    26313 1
   27220    26281    26314 1
   27221    26282    26283 1
   27222    26282    26315 1
   27223    26282    26316 1
   27224    26283    26284 1
   27225    26283    26317 1
   27226    26283    26318 1
   27227    26284    26285 1
   27228    26284    26319 1
   27229    26284    26320 1
   27230    26285    26286 1
   27231    26285    26321 1
   27232    26285    26322 1
   27233    26286    26287 1
   27234    26286    26323 1
   27235    26286    26324 1
   27236    26287    26288 1
   27237    26287    26325 1
   27238    26287    26326 1
   27239    26288    26327 1
   27240    26288    26328 1
   27241    26288    26329 1
   27242    26330    26331 1
   27243    26330    26350 1
   27244    26330    26351 1
   27245    26331    26332 1
   27246    26331    26342 1
   27247    26331    26352 1
   27248    26332    26333 1
   27249    26332    26353 1
   27250    26332    26354 1
   27251    26333    26334 1
   27252    26333    26355 1
   27253    26333    26356 1
   27254    26334    26335 1
   27255    26334    26357 1
   27256    26334    26358 1
   27257    26335    26336 1
   27258    26335    26359 1
   27259    26335    26360 1
   27260    26336    26337 1
   27261    26336    26361 1
   27262    26336    26362 1
   27263    26337    26338 1
   27264    26337    26363 1
   27265    26337    26364 1
   27266    26338    26339 1
   27267    26338    26365 1
   27268    26338    26366 1
   27269    26339    26340 1
   27270    26339    26367 1
   27271    26339    26368 1
   27272    26340    26341 1
   27273    26340    26369 1
   27274    26340    26370 1
   27275    26341    26371 1
   27276    26341    26372 1
   27277    26341    26373 1
   27278    26342    26343 1
   27279    26342    26374 1
   27280    26342    26375 1
   27281    26343    26344 1
   27282    26343    26376 1
   27283    26343    26377 1
   27284    26344    26345 1
   27285    26344    26378 1
   27286    26344    26379 1
   27287    26345    26346 1
   27288    26345    26380 1
   27289    26345    26381 1
   27290    26346    26347 1
   27291    26346    26382 1
   27292    26346    26383 1
   27293    26347    26348 1
   27294    26347    26384 1
   27295    26347    26385 1
   27296    26348    26349 1
   27297    26348    26386 1
   27298    26348    26387 1
   27299    26349    26388 1
   27300    26349    26389 1
   27301    26349    26390 1
   27302    26391    26392 1
   27303    26391    26398 1
   27304    26391    26414 1
   27305    26391    26475 1
   27306    26392    26393 1
   27307    26392    26396 1
   27308    26393    26394 1
   27309    26393    26397 1
   27310    26394    26395 1
   27311    26395    26396 1
   27312    26396    26402 1
   27313    26397    26398 1
   27314    26397    26401 1
   27315    26398    26399 1
   27316    26399    26400 1
   27317    26399    26403 1
   27318    26400    26401 1
   27319    26400    26406 1
   27320    26404    26405 1
   27321    26404    26412 1
   27322    26405    26406 1
   27323    26405    26413 1
   27324    26406    26407 1
   27325    26407    26408 1
   27326    26407    26411 1
   27327    26408    26409 1
   27328    26409    26410 1
   27329    26410    26411 1
   27330    26411    26412 1
   27331    26412    26540 1
   27332    26414    26415 1
   27333    26414    26434 1
   27334    26414    26435 1
   27335    26415    26416 1
   27336    26415    26426 1
   27337    26415    26436 1
   27338    26416    26417 1
   27339    26416    26437 1
   27340    26416    26438 1
   27341    26417    26418 1
   27342    26417    26439 1
   27343    26417    26440 1
   27344    26418    26419 1
   27345    26418    26441 1
   27346    26418    26442 1
   27347    26419    26420 1
   27348    26419    26443 1
   27349    26419    26444 1
   27350    26420    26421 1
   27351    26420    26445 1
   27352    26420    26446 1
   27353    26421    26422 1
   27354    26421    26447 1
   27355    26421    26448 1
   27356    26422    26423 1
   27357    26422    26449 1
   27358    26422    26450 1
   27359    26423    26424 1
   27360    26423    26451 1
   27361    26423    26452 1
   27362    26424    26425 1
   27363    26424    26453 1
   27364    26424    26454 1
   27365    26425    26455 1
   27366    26425    26456 1
   27367    26425    26457 1
   27368    26426    26427 1
   27369    26426    26458 1
   27370    26426    26459 1
   27371    26427    26428 1
   27372    26427    26460 1
   27373    26427    26461 1
   27374    26428    26429 1
   27375    26428    26462 1
   27376    26428    26463 1
   27377    26429    26430 1
   27378    26429    26464 1
   27379    26429    26465 1
   27380    26430    26431 1
   27381    26430    26466 1
   27382    26430    26467 1
   27383    26431    26432 1
   27384    26431    26468 1
   27385    26431    26469 1
   27386    26432    26433 1
   27387    26432    26470 1
   27388    26432    26471 1
   27389    26433    26472 1
   27390    26433    26473 1
   27391    26433    26474 1
   27392    26475    26476 1
   27393    26475    26495 1
   27394    26475    26496 1
   27395    26476    26477 1
   27396    26476    26487 1
   27397    26476    26497 1
   27398    26477    26478 1
   27399    26477    26498 1
   27400    26477    26499 1
   27401    26478    26479 1
   27402    26478    26500 1
   27403    26478    26501 1
   27404    26479    26480 1
   27405    26479    26502 1
   27406    26479    26503 1
   27407    26480    26481 1
   27408    26480    26504 1
   27409    26480    26505 1
   27410    26481    26482 1
   27411    26481    26506 1
   27412    26481    26507 1
   27413    26482    26483 1
   27414    26482    26508 1
   27415    26482    26509 1
   27416    26483    26484 1
   27417    26483    26510 1
   27418    26483    26511 1
   27419    26484    26485 1
   27420    26484    26512 1
   27421    26484    26513 1
   27422    26485    26486 1
   27423    26485    26514 1
   27424    26485    26515 1
   27425    26486    26516 1
   27426    26486    26517 1
   27427    26486    26518 1
   27428    26487    26488 1
   27429    26487    26519 1
   27430    26487    26520 1
   27431    26488    26489 1
   27432    26488    26521 1
   27433    26488    26522 1
   27434    26489    26490 1
   27435    26489    26523 1
   27436    26489    26524 1
   27437    26490    26491 1
   27438    26490    26525 1
   27439    26490    26526 1
   27440    26491    26492 1
   27441    26491    26527 1
   27442    26491    26528 1
   27443    26492    26493 1
   27444    26492    26529 1
   27445    26492    26530 1
   27446    26493    26494 1
   27447    26493    26531 1
   27448    26493    26532 1
   27449    26494    26533 1
   27450    26494    26534 1
   27451    26494    26535 1
   27452    26536    26537 1
   27453    26536    26543 1
   27454    26536    26559 1
   27455    26536    26620 1
   27456    26537    26538 1
   27457    26537    26541 1
   27458    26538    26539 1
   27459    26538    26542 1
   27460    26539    26540 1
   27461    26540    26541 1
   27462    26541    26547 1
   27463    26542    26543 1
   27464    26542    26546 1
   27465    26543    26544 1
   27466    26544    26545 1
   27467    26544    26548 1
   27468    26545    26546 1
   27469    26545    26551 1
   27470    26549    26550 1
   27471    26549    26557 1
   27472    26550    26551 1
   27473    26550    26558 1
   27474    26551    26552 1
   27475    26552    26553 1
   27476    26552    26556 1
   27477    26553    26554 1
   27478    26554    26555 1
   27479    26555    26556 1
   27480    26556    26557 1
   27481    26557    26685 1
   27482    26559    26560 1
   27483    26559    26579 1
   27484    26559    26580 1
   27485    26560    26561 1
   27486    26560    26571 1
   27487    26560    26581 1
   27488    26561    26562 1
   27489    26561    26582 1
   27490    26561    26583 1
   27491    26562    26563 1
   27492    26562    26584 1
   27493    26562    26585 1
   27494    26563    26564 1
   27495    26563    26586 1
   27496    26563    26587 1
   27497    26564    26565 1
   27498    26564    26588 1
   27499    26564    26589 1
   27500    26565    26566 1
   27501    26565    26590 1
   27502    26565    26591 1
   27503    26566    26567 1
   27504    26566    26592 1
   27505    26566    26593 1
   27506    26567    26568 1
   27507    26567    26594 1
   27508    26567    26595 1
   27509    26568    26569 1
   27510    26568    26596 1
   27511    26568    26597 1
   27512    26569    26570 1
   27513    26569    26598 1
   27514    26569    26599 1
   27515    26570    26600 1
   27516    26570    26601 1
   27517    26570    26602 1
   27518    26571    26572 1
   27519    26571    26603 1
   27520    26571    26604 1
   27521    26572    26573 1
   27522    26572    26605 1
   27523    26572    26606 1
   27524    26573    26574 1
   27525    26573    26607 1
   27526    26573    26608 1
   27527    26574    26575 1
   27528    26574    26609 1
   27529    26574    26610 1
   27530    26575    26576 1
   27531    26575    26611 1
   27532    26575    26612 1
   27533    26576    26577 1
   27534    26576    26613 1
   27535    26576    26614 1
   27536    26577    26578 1
   27537    26577    26615 1
   27538    26577    26616 1
   27539    26578    26617 1
   27540    26578    26618 1
   27541    26578    26619 1
   27542    26620    26621 1
   27543    26620    26640 1
   27544    26620    26641 1
   27545    26621    26622 1
   27546    26621    26632 1
   27547    26621    26642 1
   27548    26622    26623 1
   27549    26622    26643 1
   27550    26622    26644 1
   27551    26623    26624 1
   27552    26623    26645 1
   27553    26623    26646 1
   27554    26624    26625 1
   27555    26624    26647 1
   27556    26624    26648 1
   27557    26625    26626 1
   27558    26625    26649 1
   27559    26625    26650 1
   27560    26626    26627 1
   27561    26626    26651 1
   27562    26626    26652 1
   27563    26627    26628 1
   27564    26627    26653 1
   27565    26627    26654 1
   27566    26628    26629 1
   27567    26628    26655 1
   27568    26628    26656 1
   27569    26629    26630 1
   27570    26629    26657 1
   27571    26629    26658 1
   27572    26630    26631 1
   27573    26630    26659 1
   27574    26630    26660 1
   27575    26631    26661 1
   27576    26631    26662 1
   27577    26631    26663 1
   27578    26632    26633 1
   27579    26632    26664 1
   27580    26632    26665 1
   27581    26633    26634 1
   27582    26633    26666 1
   27583    26633    26667 1
   27584    26634    26635 1
   27585    26634    26668 1
   27586    26634    26669 1
   27587    26635    26636 1
   27588    26635    26670 1
   27589    26635    26671 1
   27590    26636    26637 1
   27591    26636    26672 1
   27592    26636    26673 1
   27593    26637    26638 1
   27594    26637    26674 1
   27595    26637    26675 1
   27596    26638    26639 1
   27597    26638    26676 1
   27598    26638    26677 1
   27599    26639    26678 1
   27600    26639    26679 1
   27601    26639    26680 1
   27602    26681    26682 1
   27603    26681    26688 1
   27604    26681    26704 1
   27605    26681    26765 1
   27606    26682    26683 1
   27607    26682    26686 1
   27608    26683    26684 1
   27609    26683    26687 1
   27610    26684    26685 1
   27611    26685    26686 1
   27612    26686    26692 1
   27613    26687    26688 1
   27614    26687    26691 1
   27615    26688    26689 1
   27616    26689    26690 1
   27617    26689    26693 1
   27618    26690    26691 1
   27619    26690    26696 1
   27620    26694    26695 1
   27621    26694    26702 1
   27622    26695    26696 1
   27623    26695    26703 1
   27624    26696    26697 1
   27625    26697    26698 1
   27626    26697    26701 1
   27627    26698    26699 1
   27628    26699    26700 1
   27629    26700    26701 1
   27630    26701    26702 1
   27631    26702    26830 1
   27632    26704    26705 1
   27633    26704    26724 1
   27634    26704    26725 1
   27635    26705    26706 1
   27636    26705    26716 1
   27637    26705    26726 1
   27638    26706    26707 1
   27639    26706    26727 1
   27640    26706    26728 1
   27641    26707    26708 1
   27642    26707    26729 1
   27643    26707    26730 1
   27644    26708    26709 1
   27645    26708    26731 1
   27646    26708    26732 1
   27647    26709    26710 1
   27648    26709    26733 1
   27649    26709    26734 1
   27650    26710    26711 1
   27651    26710    26735 1
   27652    26710    26736 1
   27653    26711    26712 1
   27654    26711    26737 1
   27655    26711    26738 1
   27656    26712    26713 1
   27657    26712    26739 1
   27658    26712    26740 1
   27659    26713    26714 1
   27660    26713    26741 1
   27661    26713    26742 1
   27662    26714    26715 1
   27663    26714    26743 1
   27664    26714    26744 1
   27665    26715    26745 1
   27666    26715    26746 1
   27667    26715    26747 1
   27668    26716    26717 1
   27669    26716    26748 1
   27670    26716    26749 1
   27671    26717    26718 1
   27672    26717    26750 1
   27673    26717    26751 1
   27674    26718    26719 1
   27675    26718    26752 1
   27676    26718    26753 1
   27677    26719    26720 1
   27678    26719    26754 1
   27679    26719    26755 1
   27680    26720    26721 1
   27681    26720    26756 1
   27682    26720    26757 1
   27683    26721    26722 1
   27684    26721    26758 1
   27685    26721    26759 1
   27686    26722    26723 1
   27687    26722    26760 1
   27688    26722    26761 1
   27689    26723    26762 1
   27690    26723    26763 1
   27691    26723    26764 1
   27692    26765    26766 1
   27693    26765    26785 1
   27694    26765    26786 1
   27695    26766    26767 1
   27696    26766    26777 1
   27697    26766    26787 1
   27698    26767    26768 1
   27699    26767    26788 1
   27700    26767    26789 1
   27701    26768    26769 1
   27702    26768    26790 1
   27703    26768    26791 1
   27704    26769    26770 1
   27705    26769    26792 1
   27706    26769    26793 1
   27707    26770    26771 1
   27708    26770    26794 1
   27709    26770    26795 1
   27710    26771    26772 1
   27711    26771    26796 1
   27712    26771    26797 1
   27713    26772    26773 1
   27714    26772    26798 1
   27715    26772    26799 1
   27716    26773    26774 1
   27717    26773    26800 1
   27718    26773    26801 1
   27719    26774    26775 1
   27720    26774    26802 1
   27721    26774    26803 1
   27722    26775    26776 1
   27723    26775    26804 1
   27724    26775    26805 1
   27725    26776    26806 1
   27726    26776    26807 1
   27727    26776    26808 1
   27728    26777    26778 1
   27729    26777    26809 1
   27730    26777    26810 1
   27731    26778    26779 1
   27732    26778    26811 1
   27733    26778    26812 1
   27734    26779    26780 1
   27735    26779    26813 1
   27736    26779    26814 1
   27737    26780    26781 1
   27738    26780    26815 1
   27739    26780    26816 1
   27740    26781    26782 1
   27741    26781    26817 1
   27742    26781    26818 1
   27743    26782    26783 1
   27744    26782    26819 1
   27745    26782    26820 1
   27746    26783    26784 1
   27747    26783    26821 1
   27748    26783    26822 1
   27749    26784    26823 1
   27750    26784    26824 1
   27751    26784    26825 1
   27752    26826    26827 1
   27753    26826    26833 1
   27754    26826    26849 1
   27755    26826    26910 1
   27756    26827    26828 1
   27757    26827    26831 1
   27758    26828    26829 1
   27759    26828    26832 1
   27760    26829    26830 1
   27761    26830    26831 1
   27762    26831    26837 1
   27763    26832    26833 1
   27764    26832    26836 1
   27765    26833    26834 1
   27766    26834    26835 1
   27767    26834    26838 1
   27768    26835    26836 1
   27769    26835    26841 1
   27770    26839    26840 1
   27771    26839    26847 1
   27772    26840    26841 1
   27773    26840    26848 1
   27774    26841    26842 1
   27775    26842    26843 1
   27776    26842    26846 1
   27777    26843    26844 1
   27778    26844    26845 1
   27779    26845    26846 1
   27780    26846    26847 1
   27781    26847    26975 1
   27782    26849    26850 1
   27783    26849    26869 1
   27784    26849    26870 1
   27785    26850    26851 1
   27786    26850    26861 1
   27787    26850    26871 1
   27788    26851    26852 1
   27789    26851    26872 1
   27790    26851    26873 1
   27791    26852    26853 1
   27792    26852    26874 1
   27793    26852    26875 1
   27794    26853    26854 1
   27795    26853    26876 1
   27796    26853    26877 1
   27797    26854    26855 1
   27798    26854    26878 1
   27799    26854    26879 1
   27800    26855    26856 1
   27801    26855    26880 1
   27802    26855    26881 1
   27803    26856    26857 1
   27804    26856    26882 1
   27805    26856    26883 1
   27806    26857    26858 1
   27807    26857    26884 1
   27808    26857    26885 1
   27809    26858    26859 1
   27810    26858    26886 1
   27811    26858    26887 1
   27812    26859    26860 1
   27813    26859    26888 1
   27814    26859    26889 1
   27815    26860    26890 1
   27816    26860    26891 1
   27817    26860    26892 1
   27818    26861    26862 1
   27819    26861    26893 1
   27820    26861    26894 1
   27821    26862    26863 1
   27822    26862    26895 1
   27823    26862    26896 1
   27824    26863    26864 1
   27825    26863    26897 1
   27826    26863    26898 1
   27827    26864    26865 1
   27828    26864    26899 1
   27829    26864    26900 1
   27830    26865    26866 1
   27831    26865    26901 1
   27832    26865    26902 1
   27833    26866    26867 1
   27834    26866    26903 1
   27835    26866    26904 1
   27836    26867    26868 1
   27837    26867    26905 1
   27838    26867    26906 1
   27839    26868    26907 1
   27840    26868    26908 1
   27841    26868    26909 1
   27842    26910    26911 1
   27843    26910    26930 1
   27844    26910    26931 1
   27845    26911    26912 1
   27846    26911    26922 1
   27847    26911    26932 1
   27848    26912    26913 1
   27849    26912    26933 1
   27850    26912    26934 1
   27851    26913    26914 1
   27852    26913    26935 1
   27853    26913    26936 1
   27854    26914    26915 1
   27855    26914    26937 1
   27856    26914    26938 1
   27857    26915    26916 1
   27858    26915    26939 1
   27859    26915    26940 1
   27860    26916    26917 1
   27861    26916    26941 1
   27862    26916    26942 1
   27863    26917    26918 1
   27864    26917    26943 1
   27865    26917    26944 1
   27866    26918    26919 1
   27867    26918    26945 1
   27868    26918    26946 1
   27869    26919    26920 1
   27870    26919    26947 1
   27871    26919    26948 1
   27872    26920    26921 1
   27873    26920    26949 1
   27874    26920    26950 1
   27875    26921    26951 1
   27876    26921    26952 1
   27877    26921    26953 1
   27878    26922    26923 1
   27879    26922    26954 1
   27880    26922    26955 1
   27881    26923    26924 1
   27882    26923    26956 1
   27883    26923    26957 1
   27884    26924    26925 1
   27885    26924    26958 1
   27886    26924    26959 1
   27887    26925    26926 1
   27888    26925    26960 1
   27889    26925    26961 1
   27890    26926    26927 1
   27891    26926    26962 1
   27892    26926    26963 1
   27893    26927    26928 1
   27894    26927    26964 1
   27895    26927    26965 1
   27896    26928    26929 1
   27897    26928    26966 1
   27898    26928    26967 1
   27899    26929    26968 1
   27900    26929    26969 1
   27901    26929    26970 1
   27902    26971    26972 1
   27903    26971    26978 1
   27904    26971    26994 1
   27905    26971    27055 1
   27906    26972    26973 1
   27907    26972    26976 1
   27908    26973    26974 1
   27909    26973    26977 1
   27910    26974    26975 1
   27911    26975    26976 1
   27912    26976    26982 1
   27913    26977    26978 1
   27914    26977    26981 1
   27915    26978    26979 1
   27916    26979    26980 1
   27917    26979    26983 1
   27918    26980    26981 1
   27919    26980    26986 1
   27920    26984    26985 1
   27921    26984    26992 1
   27922    26985    26986 1
   27923    26985    26993 1
   27924    26986    26987 1
   27925    26987    26988 1
   27926    26987    26991 1
   27927    26988    26989 1
   27928    26989    26990 1
   27929    26990    26991 1
   27930    26991    26992 1
   27931    26992    27120 1
   27932    26994    26995 1
   27933    26994    27014 1
   27934    26994    27015 1
   27935    26995    26996 1
   27936    26995    27006 1
   27937    26995    27016 1
   27938    26996    26997 1
   27939    26996    27017 1
   27940    26996    27018 1
   27941    26997    26998 1
   27942    26997    27019 1
   27943    26997    27020 1
   27944    26998    26999 1
   27945    26998    27021 1
   27946    26998    27022 1
   27947    26999    27000 1
   27948    26999    27023 1
   27949    26999    27024 1
   27950    27000    27001 1
   27951    27000    27025 1
   27952    27000    27026 1
   27953    27001    27002 1
   27954    27001    27027 1
   27955    27001    27028 1
   27956    27002    27003 1
   27957    27002    27029 1
   27958    27002    27030 1
   27959    27003    27004 1
   27960    27003    27031 1
   27961    27003    27032 1
   27962    27004    27005 1
   27963    27004    27033 1
   27964    27004    27034 1
   27965    27005    27035 1
   27966    27005    27036 1
   27967    27005    27037 1
   27968    27006    27007 1
   27969    27006    27038 1
   27970    27006    27039 1
   27971    27007    27008 1
   27972    27007    27040 1
   27973    27007    27041 1
   27974    27008    27009 1
   27975    27008    27042 1
   27976    27008    27043 1
   27977    27009    27010 1
   27978    27009    27044 1
   27979    27009    27045 1
   27980    27010    27011 1
   27981    27010    27046 1
   27982    27010    27047 1
   27983    27011    27012 1
   27984    27011    27048 1
   27985    27011    27049 1
   27986    27012    27013 1
   27987    27012    27050 1
   27988    27012    27051 1
   27989    27013    27052 1
   27990    27013    27053 1
   27991    27013    27054 1
   27992    27055    27056 1
   27993    27055    27075 1
   27994    27055    27076 1
   27995    27056    27057 1
   27996    27056    27067 1
   27997    27056    27077 1
   27998    27057    27058 1
   27999    27057    27078 1
   28000    27057    27079 1
   28001    27058    27059 1
   28002    27058    27080 1
   28003    27058    27081 1
   28004    27059    27060 1
   28005    27059    27082 1
   28006    27059    27083 1
   28007    27060    27061 1
   28008    27060    27084 1
   28009    27060    27085 1
   28010    27061    27062 1
   28011    27061    27086 1
   28012    27061    27087 1
   28013    27062    27063 1
   28014    27062    27088 1
   28015    27062    27089 1
   28016    27063    27064 1
   28017    27063    27090 1
   28018    27063    27091 1
   28019    27064    27065 1
   28020    27064    27092 1
   28021    27064    27093 1
   28022    27065    27066 1
   28023    27065    27094 1
   28024    27065    27095 1
   28025    27066    27096 1
   28026    27066    27097 1
   28027    27066    27098 1
   28028    27067    27068 1
   28029    27067    27099 1
   28030    27067    27100 1
   28031    27068    27069 1
   28032    27068    27101 1
   28033    27068    27102 1
   28034    27069    27070 1
   28035    27069    27103 1
   28036    27069    27104 1
   28037    27070    27071 1
   28038    27070    27105 1
   28039    27070    27106 1
   28040    27071    27072 1
   28041    27071    27107 1
   28042    27071    27108 1
   28043    27072    27073 1
   28044    27072    27109 1
   28045    27072    27110 1
   28046    27073    27074 1
   28047    27073    27111 1
   28048    27073    27112 1
   28049    27074    27113 1
   28050    27074    27114 1
   28051    27074    27115 1
   28052    27116    27117 1
   28053    27116    27123 1
   28054    27116    27139 1
   28055    27116    27200 1
   28056    27117    27118 1
   28057    27117    27121 1
   28058    27118    27119 1
   28059    27118    27122 1
   28060    27119    27120 1
   28061    27120    27121 1
   28062    27121    27127 1
   28063    27122    27123 1
   28064    27122    27126 1
   28065    27123    27124 1
   28066    27124    27125 1
   28067    27124    27128 1
   28068    27125    27126 1
   28069    27125    27131 1
   28070    27129    27130 1
   28071    27129    27137 1
   28072    27130    27131 1
   28073    27130    27138 1
   28074    27131    27132 1
   28075    27132    27133 1
   28076    27132    27136 1
   28077    27133    27134 1
   28078    27134    27135 1
   28079    27135    27136 1
   28080    27136    27137 1
   28081    27137    27265 1
   28082    27139    27140 1
   28083    27139    27159 1
   28084    27139    27160 1
   28085    27140    27141 1
   28086    27140    27151 1
   28087    27140    27161 1
   28088    27141    27142 1
   28089    27141    27162 1
   28090    27141    27163 1
   28091    27142    27143 1
   28092    27142    27164 1
   28093    27142    27165 1
   28094    27143    27144 1
   28095    27143    27166 1
   28096    27143    27167 1
   28097    27144    27145 1
   28098    27144    27168 1
   28099    27144    27169 1
   28100    27145    27146 1
   28101    27145    27170 1
   28102    27145    27171 1
   28103    27146    27147 1
   28104    27146    27172 1
   28105    27146    27173 1
   28106    27147    27148 1
   28107    27147    27174 1
   28108    27147    27175 1
   28109    27148    27149 1
   28110    27148    27176 1
   28111    27148    27177 1
   28112    27149    27150 1
   28113    27149    27178 1
   28114    27149    27179 1
   28115    27150    27180 1
   28116    27150    27181 1
   28117    27150    27182 1
   28118    27151    27152 1
   28119    27151    27183 1
   28120    27151    27184 1
   28121    27152    27153 1
   28122    27152    27185 1
   28123    27152    27186 1
   28124    27153    27154 1
   28125    27153    27187 1
   28126    27153    27188 1
   28127    27154    27155 1
   28128    27154    27189 1
   28129    27154    27190 1
   28130    27155    27156 1
   28131    27155    27191 1
   28132    27155    27192 1
   28133    27156    27157 1
   28134    27156    27193 1
   28135    27156    27194 1
   28136    27157    27158 1
   28137    27157    27195 1
   28138    27157    27196 1
   28139    27158    27197 1
   28140    27158    27198 1
   28141    27158    27199 1
   28142    27200    27201 1
   28143    27200    27220 1
   28144    27200    27221 1
   28145    27201    27202 1
   28146    27201    27212 1
   28147    27201    27222 1
   28148    27202    27203 1
   28149    27202    27223 1
   28150    27202    27224 1
   28151    27203    27204 1
   28152    27203    27225 1
   28153    27203    27226 1
   28154    27204    27205 1
   28155    27204    27227 1
   28156    27204    27228 1
   28157    27205    27206 1
   28158    27205    27229 1
   28159    27205    27230 1
   28160    27206    27207 1
   28161    27206    27231 1
   28162    27206    27232 1
   28163    27207    27208 1
   28164    27207    27233 1
   28165    27207    27234 1
   28166    27208    27209 1
   28167    27208    27235 1
   28168    27208    27236 1
   28169    27209    27210 1
   28170    27209    27237 1
   28171    27209    27238 1
   28172    27210    27211 1
   28173    27210    27239 1
   28174    27210    27240 1
   28175    27211    27241 1
   28176    27211    27242 1
   28177    27211    27243 1
   28178    27212    27213 1
   28179    27212    27244 1
   28180    27212    27245 1
   28181    27213    27214 1
   28182    27213    27246 1
   28183    27213    27247 1
   28184    27214    27215 1
   28185    27214    27248 1
   28186    27214    27249 1
   28187    27215    27216 1
   28188    27215    27250 1
   28189    27215    27251 1
   28190    27216    27217 1
   28191    27216    27252 1
   28192    27216    27253 1
   28193    27217    27218 1
   28194    27217    27254 1
   28195    27217    27255 1
   28196    27218    27219 1
   28197    27218    27256 1
   28198    27218    27257 1
   28199    27219    27258 1
   28200    27219    27259 1
   28201    27219    27260 1
   28202    27261    27262 1
   28203    27261    27268 1
   28204    27261    27284 1
   28205    27261    27345 1
   28206    27262    27263 1
   28207    27262    27266 1
   28208    27263    27264 1
   28209    27263    27267 1
   28210    27264    27265 1
   28211    27265    27266 1
   28212    27266    27272 1
   28213    27267    27268 1
   28214    27267    27271 1
   28215    27268    27269 1
   28216    27269    27270 1
   28217    27269    27273 1
   28218    27270    27271 1
   28219    27270    27276 1
   28220    27274    27275 1
   28221    27274    27282 1
   28222    27275    27276 1
   28223    27275    27283 1
   28224    27276    27277 1
   28225    27277    27278 1
   28226    27277    27281 1
   28227    27278    27279 1
   28228    27279    27280 1
   28229    27280    27281 1
   28230    27281    27282 1
   28231    27282    27410 1
   28232    27284    27285 1
   28233    27284    27304 1
   28234    27284    27305 1
   28235    27285    27286 1
   28236    27285    27296 1
   28237    27285    27306 1
   28238    27286    27287 1
   28239    27286    27307 1
   28240    27286    27308 1
   28241    27287    27288 1
   28242    27287    27309 1
   28243    27287    27310 1
   28244    27288    27289 1
   28245    27288    27311 1
   28246    27288    27312 1
   28247    27289    27290 1
   28248    27289    27313 1
   28249    27289    27314 1
   28250    27290    27291 1
   28251    27290    27315 1
   28252    27290    27316 1
   28253    27291    27292 1
   28254    27291    27317 1
   28255    27291    27318 1
   28256    27292    27293 1
   28257    27292    27319 1
   28258    27292    27320 1
   28259    27293    27294 1
   28260    27293    27321 1
   28261    27293    27322 1
   28262    27294    27295 1
   28263    27294    27323 1
   28264    27294    27324 1
   28265    27295    27325 1
   28266    27295    27326 1
   28267    27295    27327 1
   28268    27296    27297 1
   28269    27296    27328 1
   28270    27296    27329 1
   28271    27297    27298 1
   28272    27297    27330 1
   28273    27297    27331 1
   28274    27298    27299 1
   28275    27298    27332 1
   28276    27298    27333 1
   28277    27299    27300 1
   28278    27299    27334 1
   28279    27299    27335 1
   28280    27300    27301 1
   28281    27300    27336 1
   28282    27300    27337 1
   28283    27301    27302 1
   28284    27301    27338 1
   28285    27301    27339 1
   28286    27302    27303 1
   28287    27302    27340 1
   28288    27302    27341 1
   28289    27303    27342 1
   28290    27303    27343 1
   28291    27303    27344 1
   28292    27345    27346 1
   28293    27345    27365 1
   28294    27345    27366 1
   28295    27346    27347 1
   28296    27346    27357 1
   28297    27346    27367 1
   28298    27347    27348 1
   28299    27347    27368 1
   28300    27347    27369 1
   28301    27348    27349 1
   28302    27348    27370 1
   28303    27348    27371 1
   28304    27349    27350 1
   28305    27349    27372 1
   28306    27349    27373 1
   28307    27350    27351 1
   28308    27350    27374 1
   28309    27350    27375 1
   28310    27351    27352 1
   28311    27351    27376 1
   28312    27351    27377 1
   28313    27352    27353 1
   28314    27352    27378 1
   28315    27352    27379 1
   28316    27353    27354 1
   28317    27353    27380 1
   28318    27353    27381 1
   28319    27354    27355 1
   28320    27354    27382 1
   28321    27354    27383 1
   28322    27355    27356 1
   28323    27355    27384 1
   28324    27355    27385 1
   28325    27356    27386 1
   28326    27356    27387 1
   28327    27356    27388 1
   28328    27357    27358 1
   28329    27357    27389 1
   28330    27357    27390 1
   28331    27358    27359 1
   28332    27358    27391 1
   28333    27358    27392 1
   28334    27359    27360 1
   28335    27359    27393 1
   28336    27359    27394 1
   28337    27360    27361 1
   28338    27360    27395 1
   28339    27360    27396 1
   28340    27361    27362 1
   28341    27361    27397 1
   28342    27361    27398 1
   28343    27362    27363 1
   28344    27362    27399 1
   28345    27362    27400 1
   28346    27363    27364 1
   28347    27363    27401 1
   28348    27363    27402 1
   28349    27364    27403 1
   28350    27364    27404 1
   28351    27364    27405 1
   28352    27406    27407 1
   28353    27406    27413 1
   28354    27406    27429 1
   28355    27406    27490 1
   28356    27407    27408 1
   28357    27407    27411 1
   28358    27408    27409 1
   28359    27408    27412 1
   28360    27409    27410 1
   28361    27410    27411 1
   28362    27411    27417 1
   28363    27412    27413 1
   28364    27412    27416 1
   28365    27413    27414 1
   28366    27414    27415 1
   28367    27414    27418 1
   28368    27415    27416 1
   28369    27415    27421 1
   28370    27419    27420 1
   28371    27419    27427 1
   28372    27420    27421 1
   28373    27420    27428 1
   28374    27421    27422 1
   28375    27422    27423 1
   28376    27422    27426 1
   28377    27423    27424 1
   28378    27424    27425 1
   28379    27425    27426 1
   28380    27426    27427 1
   28381    27427    27555 1
   28382    27429    27430 1
   28383    27429    27449 1
   28384    27429    27450 1
   28385    27430    27431 1
   28386    27430    27441 1
   28387    27430    27451 1
   28388    27431    27432 1
   28389    27431    27452 1
   28390    27431    27453 1
   28391    27432    27433 1
   28392    27432    27454 1
   28393    27432    27455 1
   28394    27433    27434 1
   28395    27433    27456 1
   28396    27433    27457 1
   28397    27434    27435 1
   28398    27434    27458 1
   28399    27434    27459 1
   28400    27435    27436 1
   28401    27435    27460 1
   28402    27435    27461 1
   28403    27436    27437 1
   28404    27436    27462 1
   28405    27436    27463 1
   28406    27437    27438 1
   28407    27437    27464 1
   28408    27437    27465 1
   28409    27438    27439 1
   28410    27438    27466 1
   28411    27438    27467 1
   28412    27439    27440 1
   28413    27439    27468 1
   28414    27439    27469 1
   28415    27440    27470 1
   28416    27440    27471 1
   28417    27440    27472 1
   28418    27441    27442 1
   28419    27441    27473 1
   28420    27441    27474 1
   28421    27442    27443 1
   28422    27442    27475 1
   28423    27442    27476 1
   28424    27443    27444 1
   28425    27443    27477 1
   28426    27443    27478 1
   28427    27444    27445 1
   28428    27444    27479 1
   28429    27444    27480 1
   28430    27445    27446 1
   28431    27445    27481 1
   28432    27445    27482 1
   28433    27446    27447 1
   28434    27446    27483 1
   28435    27446    27484 1
   28436    27447    27448 1
   28437    27447    27485 1
   28438    27447    27486 1
   28439    27448    27487 1
   28440    27448    27488 1
   28441    27448    27489 1
   28442    27490    27491 1
   28443    27490    27510 1
   28444    27490    27511 1
   28445    27491    27492 1
   28446    27491    27502 1
   28447    27491    27512 1
   28448    27492    27493 1
   28449    27492    27513 1
   28450    27492    27514 1
   28451    27493    27494 1
   28452    27493    27515 1
   28453    27493    27516 1
   28454    27494    27495 1
   28455    27494    27517 1
   28456    27494    27518 1
   28457    27495    27496 1
   28458    27495    27519 1
   28459    27495    27520 1
   28460    27496    27497 1
   28461    27496    27521 1
   28462    27496    27522 1
   28463    27497    27498 1
   28464    27497    27523 1
   28465    27497    27524 1
   28466    27498    27499 1
   28467    27498    27525 1
   28468    27498    27526 1
   28469    27499    27500 1
   28470    27499    27527 1
   28471    27499    27528 1
   28472    27500    27501 1
   28473    27500    27529 1
   28474    27500    27530 1
   28475    27501    27531 1
   28476    27501    27532 1
   28477    27501    27533 1
   28478    27502    27503 1
   28479    27502    27534 1
   28480    27502    27535 1
   28481    27503    27504 1
   28482    27503    27536 1
   28483    27503    27537 1
   28484    27504    27505 1
   28485    27504    27538 1
   28486    27504    27539 1
   28487    27505    27506 1
   28488    27505    27540 1
   28489    27505    27541 1
   28490    27506    27507 1
   28491    27506    27542 1
   28492    27506    27543 1
   28493    27507    27508 1
   28494    27507    27544 1
   28495    27507    27545 1
   28496    27508    27509 1
   28497    27508    27546 1
   28498    27508    27547 1
   28499    27509    27548 1
   28500    27509    27549 1
   28501    27509    27550 1
   28502    27551    27552 1
   28503    27551    27558 1
   28504    27551    27574 1
   28505    27551    27635 1
   28506    27552    27553 1
   28507    27552    27556 1
   28508    27553    27554 1
   28509    27553    27557 1
   28510    27554    27555 1
   28511    27555    27556 1
   28512    27556    27562 1
   28513    27557    27558 1
   28514    27557    27561 1
   28515    27558    27559 1
   28516    27559    27560 1
   28517    27559    27563 1
   28518    27560    27561 1
   28519    27560    27566 1
   28520    27564    27565 1
   28521    27564    27572 1
   28522    27565    27566 1
   28523    27565    27573 1
   28524    27566    27567 1
   28525    27567    27568 1
   28526    27567    27571 1
   28527    27568    27569 1
   28528    27569    27570 1
   28529    27570    27571 1
   28530    27571    27572 1
   28531    27572    27700 1
   28532    27574    27575 1
   28533    27574    27594 1
   28534    27574    27595 1
   28535    27575    27576 1
   28536    27575    27586 1
   28537    27575    27596 1
   28538    27576    27577 1
   28539    27576    27597 1
   28540    27576    27598 1
   28541    27577    27578 1
   28542    27577    27599 1
   28543    27577    27600 1
   28544    27578    27579 1
   28545    27578    27601 1
   28546    27578    27602 1
   28547    27579    27580 1
   28548    27579    27603 1
   28549    27579    27604 1
   28550    27580    27581 1
   28551    27580    27605 1
   28552    27580    27606 1
   28553    27581    27582 1
   28554    27581    27607 1
   28555    27581    27608 1
   28556    27582    27583 1
   28557    27582    27609 1
   28558    27582    27610 1
   28559    27583    27584 1
   28560    27583    27611 1
   28561    27583    27612 1
   28562    27584    27585 1
   28563    27584    27613 1
   28564    27584    27614 1
   28565    27585    27615 1
   28566    27585    27616 1
   28567    27585    27617 1
   28568    27586    27587 1
   28569    27586    27618 1
   28570    27586    27619 1
   28571    27587    27588 1
   28572    27587    27620 1
   28573    27587    27621 1
   28574    27588    27589 1
   28575    27588    27622 1
   28576    27588    27623 1
   28577    27589    27590 1
   28578    27589    27624 1
   28579    27589    27625 1
   28580    27590    27591 1
   28581    27590    27626 1
   28582    27590    27627 1
   28583    27591    27592 1
   28584    27591    27628 1
   28585    27591    27629 1
   28586    27592    27593 1
   28587    27592    27630 1
   28588    27592    27631 1
   28589    27593    27632 1
   28590    27593    27633 1
   28591    27593    27634 1
   28592    27635    27636 1
   28593    27635    27655 1
   28594    27635    27656 1
   28595    27636    27637 1
   28596    27636    27647 1
   28597    27636    27657 1
   28598    27637    27638 1
   28599    27637    27658 1
   28600    27637    27659 1
   28601    27638    27639 1
   28602    27638    27660 1
   28603    27638    27661 1
   28604    27639    27640 1
   28605    27639    27662 1
   28606    27639    27663 1
   28607    27640    27641 1
   28608    27640    27664 1
   28609    27640    27665 1
   28610    27641    27642 1
   28611    27641    27666 1
   28612    27641    27667 1
   28613    27642    27643 1
   28614    27642    27668 1
   28615    27642    27669 1
   28616    27643    27644 1
   28617    27643    27670 1
   28618    27643    27671 1
   28619    27644    27645 1
   28620    27644    27672 1
   28621    27644    27673 1
   28622    27645    27646 1
   28623    27645    27674 1
   28624    27645    27675 1
   28625    27646    27676 1
   28626    27646    27677 1
   28627    27646    27678 1
   28628    27647    27648 1
   28629    27647    27679 1
   28630    27647    27680 1
   28631    27648    27649 1
   28632    27648    27681 1
   28633    27648    27682 1
   28634    27649    27650 1
   28635    27649    27683 1
   28636    27649    27684 1
   28637    27650    27651 1
   28638    27650    27685 1
   28639    27650    27686 1
   28640    27651    27652 1
   28641    27651    27687 1
   28642    27651    27688 1
   28643    27652    27653 1
   28644    27652    27689 1
   28645    27652    27690 1
   28646    27653    27654 1
   28647    27653    27691 1
   28648    27653    27692 1
   28649    27654    27693 1
   28650    27654    27694 1
   28651    27654    27695 1
   28652    27696    27697 1
   28653    27696    27703 1
   28654    27696    27719 1
   28655    27696    27780 1
   28656    27697    27698 1
   28657    27697    27701 1
   28658    27698    27699 1
   28659    27698    27702 1
   28660    27699    27700 1
   28661    27700    27701 1
   28662    27701    27707 1
   28663    27702    27703 1
   28664    27702    27706 1
   28665    27703    27704 1
   28666    27704    27705 1
   28667    27704    27708 1
   28668    27705    27706 1
   28669    27705    27711 1
   28670    27709    27710 1
   28671    27709    27717 1
   28672    27710    27711 1
   28673    27710    27718 1
   28674    27711    27712 1
   28675    27712    27713 1
   28676    27712    27716 1
   28677    27713    27714 1
   28678    27714    27715 1
   28679    27715    27716 1
   28680    27716    27717 1
   28681    27717    27845 1
   28682    27719    27720 1
   28683    27719    27739 1
   28684    27719    27740 1
   28685    27720    27721 1
   28686    27720    27731 1
   28687    27720    27741 1
   28688    27721    27722 1
   28689    27721    27742 1
   28690    27721    27743 1
   28691    27722    27723 1
   28692    27722    27744 1
   28693    27722    27745 1
   28694    27723    27724 1
   28695    27723    27746 1
   28696    27723    27747 1
   28697    27724    27725 1
   28698    27724    27748 1
   28699    27724    27749 1
   28700    27725    27726 1
   28701    27725    27750 1
   28702    27725    27751 1
   28703    27726    27727 1
   28704    27726    27752 1
   28705    27726    27753 1
   28706    27727    27728 1
   28707    27727    27754 1
   28708    27727    27755 1
   28709    27728    27729 1
   28710    27728    27756 1
   28711    27728    27757 1
   28712    27729    27730 1
   28713    27729    27758 1
   28714    27729    27759 1
   28715    27730    27760 1
   28716    27730    27761 1
   28717    27730    27762 1
   28718    27731    27732 1
   28719    27731    27763 1
   28720    27731    27764 1
   28721    27732    27733 1
   28722    27732    27765 1
   28723    27732    27766 1
   28724    27733    27734 1
   28725    27733    27767 1
   28726    27733    27768 1
   28727    27734    27735 1
   28728    27734    27769 1
   28729    27734    27770 1
   28730    27735    27736 1
   28731    27735    27771 1
   28732    27735    27772 1
   28733    27736    27737 1
   28734    27736    27773 1
   28735    27736    27774 1
   28736    27737    27738 1
   28737    27737    27775 1
   28738    27737    27776 1
   28739    27738    27777 1
   28740    27738    27778 1
   28741    27738    27779 1
   28742    27780    27781 1
   28743    27780    27800 1
   28744    27780    27801 1
   28745    27781    27782 1
   28746    27781    27792 1
   28747    27781    27802 1
   28748    27782    27783 1
   28749    27782    27803 1
   28750    27782    27804 1
   28751    27783    27784 1
   28752    27783    27805 1
   28753    27783    27806 1
   28754    27784    27785 1
   28755    27784    27807 1
   28756    27784    27808 1
   28757    27785    27786 1
   28758    27785    27809 1
   28759    27785    27810 1
   28760    27786    27787 1
   28761    27786    27811 1
   28762    27786    27812 1
   28763    27787    27788 1
   28764    27787    27813 1
   28765    27787    27814 1
   28766    27788    27789 1
   28767    27788    27815 1
   28768    27788    27816 1
   28769    27789    27790 1
   28770    27789    27817 1
   28771    27789    27818 1
   28772    27790    27791 1
   28773    27790    27819 1
   28774    27790    27820 1
   28775    27791    27821 1
   28776    27791    27822 1
   28777    27791    27823 1
   28778    27792    27793 1
   28779    27792    27824 1
   28780    27792    27825 1
   28781    27793    27794 1
   28782    27793    27826 1
   28783    27793    27827 1
   28784    27794    27795 1
   28785    27794    27828 1
   28786    27794    27829 1
   28787    27795    27796 1
   28788    27795    27830 1
   28789    27795    27831 1
   28790    27796    27797 1
   28791    27796    27832 1
   28792    27796    27833 1
   28793    27797    27798 1
   28794    27797    27834 1
   28795    27797    27835 1
   28796    27798    27799 1
   28797    27798    27836 1
   28798    27798    27837 1
   28799    27799    27838 1
   28800    27799    27839 1
   28801    27799    27840 1
   28802    27841    27842 1
   28803    27841    27848 1
   28804    27841    27864 1
   28805    27841    27925 1
   28806    27842    27843 1
   28807    27842    27846 1
   28808    27843    27844 1
   28809    27843    27847 1
   28810    27844    27845 1
   28811    27845    27846 1
   28812    27846    27852 1
   28813    27847    27848 1
   28814    27847    27851 1
   28815    27848    27849 1
   28816    27849    27850 1
   28817    27849    27853 1
   28818    27850    27851 1
   28819    27850    27856 1
   28820    27854    27855 1
   28821    27854    27862 1
   28822    27855    27856 1
   28823    27855    27863 1
   28824    27856    27857 1
   28825    27857    27858 1
   28826    27857    27861 1
   28827    27858    27859 1
   28828    27859    27860 1
   28829    27860    27861 1
   28830    27861    27862 1
   28831    27862    27990 1
   28832    27864    27865 1
   28833    27864    27884 1
   28834    27864    27885 1
   28835    27865    27866 1
   28836    27865    27876 1
   28837    27865    27886 1
   28838    27866    27867 1
   28839    27866    27887 1
   28840    27866    27888 1
   28841    27867    27868 1
   28842    27867    27889 1
   28843    27867    27890 1
   28844    27868    27869 1
   28845    27868    27891 1
   28846    27868    27892 1
   28847    27869    27870 1
   28848    27869    27893 1
   28849    27869    27894 1
   28850    27870    27871 1
   28851    27870    27895 1
   28852    27870    27896 1
   28853    27871    27872 1
   28854    27871    27897 1
   28855    27871    27898 1
   28856    27872    27873 1
   28857    27872    27899 1
   28858    27872    27900 1
   28859    27873    27874 1
   28860    27873    27901 1
   28861    27873    27902 1
   28862    27874    27875 1
   28863    27874    27903 1
   28864    27874    27904 1
   28865    27875    27905 1
   28866    27875    27906 1
   28867    27875    27907 1
   28868    27876    27877 1
   28869    27876    27908 1
   28870    27876    27909 1
   28871    27877    27878 1
   28872    27877    27910 1
   28873    27877    27911 1
   28874    27878    27879 1
   28875    27878    27912 1
   28876    27878    27913 1
   28877    27879    27880 1
   28878    27879    27914 1
   28879    27879    27915 1
   28880    27880    27881 1
   28881    27880    27916 1
   28882    27880    27917 1
   28883    27881    27882 1
   28884    27881    27918 1
   28885    27881    27919 1
   28886    27882    27883 1
   28887    27882    27920 1
   28888    27882    27921 1
   28889    27883    27922 1
   28890    27883    27923 1
   28891    27883    27924 1
   28892    27925    27926 1
   28893    27925    27945 1
   28894    27925    27946 1
   28895    27926    27927 1
   28896    27926    27937 1
   28897    27926    27947 1
   28898    27927    27928 1
   28899    27927    27948 1
   28900    27927    27949 1
   28901    27928    27929 1
   28902    27928    27950 1
   28903    27928    27951 1
   28904    27929    27930 1
   28905    27929    27952 1
   28906    27929    27953 1
   28907    27930    27931 1
   28908    27930    27954 1
   28909    27930    27955 1
   28910    27931    27932 1
   28911    27931    27956 1
   28912    27931    27957 1
   28913    27932    27933 1
   28914    27932    27958 1
   28915    27932    27959 1
   28916    27933    27934 1
   28917    27933    27960 1
   28918    27933    27961 1
   28919    27934    27935 1
   28920    27934    27962 1
   28921    27934    27963 1
   28922    27935    27936 1
   28923    27935    27964 1
   28924    27935    27965 1
   28925    27936    27966 1
   28926    27936    27967 1
   28927    27936    27968 1
   28928    27937    27938 1
   28929    27937    27969 1
   28930    27937    27970 1
   28931    27938    27939 1
   28932    27938    27971 1
   28933    27938    27972 1
   28934    27939    27940 1
   28935    27939    27973 1
   28936    27939    27974 1
   28937    27940    27941 1
   28938    27940    27975 1
   28939    27940    27976 1
   28940    27941    27942 1
   28941    27941    27977 1
   28942    27941    27978 1
   28943    27942    27943 1
   28944    27942    27979 1
   28945    27942    27980 1
   28946    27943    27944 1
   28947    27943    27981 1
   28948    27943    27982 1
   28949    27944    27983 1
   28950    27944    27984 1
   28951    27944    27985 1
   28952    27986    27987 1
   28953    27986    27993 1
   28954    27986    28009 1
   28955    27986    28070 1
   28956    27987    27988 1
   28957    27987    27991 1
   28958    27988    27989 1
   28959    27988    27992 1
   28960    27989    27990 1
   28961    27990    27991 1
   28962    27991    27997 1
   28963    27992    27993 1
   28964    27992    27996 1
   28965    27993    27994 1
   28966    27994    27995 1
   28967    27994    27998 1
   28968    27995    27996 1
   28969    27995    28001 1
   28970    27999    28000 1
   28971    27999    28007 1
   28972    28000    28001 1
   28973    28000    28008 1
   28974    28001    28002 1
   28975    28002    28003 1
   28976    28002    28006 1
   28977    28003    28004 1
   28978    28004    28005 1
   28979    28005    28006 1
   28980    28006    28007 1
   28981    28007    28135 1
   28982    28009    28010 1
   28983    28009    28029 1
   28984    28009    28030 1
   28985    28010    28011 1
   28986    28010    28021 1
   28987    28010    28031 1
   28988    28011    28012 1
   28989    28011    28032 1
   28990    28011    28033 1
   28991    28012    28013 1
   28992    28012    28034 1
   28993    28012    28035 1
   28994    28013    28014 1
   28995    28013    28036 1
   28996    28013    28037 1
   28997    28014    28015 1
   28998    28014    28038 1
   28999    28014    28039 1
   29000    28015    28016 1
   29001    28015    28040 1
   29002    28015    28041 1
   29003    28016    28017 1
   29004    28016    28042 1
   29005    28016    28043 1
   29006    28017    28018 1
   29007    28017    28044 1
   29008    28017    28045 1
   29009    28018    28019 1
   29010    28018    28046 1
   29011    28018    28047 1
   29012    28019    28020 1
   29013    28019    28048 1
   29014    28019    28049 1
   29015    28020    28050 1
   29016    28020    28051 1
   29017    28020    28052 1
   29018    28021    28022 1
   29019    28021    28053 1
   29020    28021    28054 1
   29021    28022    28023 1
   29022    28022    28055 1
   29023    28022    28056 1
   29024    28023    28024 1
   29025    28023    28057 1
   29026    28023    28058 1
   29027    28024    28025 1
   29028    28024    28059 1
   29029    28024    28060 1
   29030    28025    28026 1
   29031    28025    28061 1
   29032    28025    28062 1
   29033    28026    28027 1
   29034    28026    28063 1
   29035    28026    28064 1
   29036    28027    28028 1
   29037    28027    28065 1
   29038    28027    28066 1
   29039    28028    28067 1
   29040    28028    28068 1
   29041    28028    28069 1
   29042    28070    28071 1
   29043    28070    28090 1
   29044    28070    28091 1
   29045    28071    28072 1
   29046    28071    28082 1
   29047    28071    28092 1
   29048    28072    28073 1
   29049    28072    28093 1
   29050    28072    28094 1
   29051    28073    28074 1
   29052    28073    28095 1
   29053    28073    28096 1
   29054    28074    28075 1
   29055    28074    28097 1
   29056    28074    28098 1
   29057    28075    28076 1
   29058    28075    28099 1
   29059    28075    28100 1
   29060    28076    28077 1
   29061    28076    28101 1
   29062    28076    28102 1
   29063    28077    28078 1
   29064    28077    28103 1
   29065    28077    28104 1
   29066    28078    28079 1
   29067    28078    28105 1
   29068    28078    28106 1
   29069    28079    28080 1
   29070    28079    28107 1
   29071    28079    28108 1
   29072    28080    28081 1
   29073    28080    28109 1
   29074    28080    28110 1
   29075    28081    28111 1
   29076    28081    28112 1
   29077    28081    28113 1
   29078    28082    28083 1
   29079    28082    28114 1
   29080    28082    28115 1
   29081    28083    28084 1
   29082    28083    28116 1
   29083    28083    28117 1
   29084    28084    28085 1
   29085    28084    28118 1
   29086    28084    28119 1
   29087    28085    28086 1
   29088    28085    28120 1
   29089    28085    28121 1
   29090    28086    28087 1
   29091    28086    28122 1
   29092    28086    28123 1
   29093    28087    28088 1
   29094    28087    28124 1
   29095    28087    28125 1
   29096    28088    28089 1
   29097    28088    28126 1
   29098    28088    28127 1
   29099    28089    28128 1
   29100    28089    28129 1
   29101    28089    28130 1
   29102    28131    28132 1
   29103    28131    28138 1
   29104    28131    28154 1
   29105    28131    28215 1
   29106    28132    28133 1
   29107    28132    28136 1
   29108    28133    28134 1
   29109    28133    28137 1
   29110    28134    28135 1
   29111    28135    28136 1
   29112    28136    28142 1
   29113    28137    28138 1
   29114    28137    28141 1
   29115    28138    28139 1
   29116    28139    28140 1
   29117    28139    28143 1
   29118    28140    28141 1
   29119    28140    28146 1
   29120    28144    28145 1
   29121    28144    28152 1
   29122    28145    28146 1
   29123    28145    28153 1
   29124    28146    28147 1
   29125    28147    28148 1
   29126    28147    28151 1
   29127    28148    28149 1
   29128    28149    28150 1
   29129    28150    28151 1
   29130    28151    28152 1
   29131    28152    28280 1
   29132    28154    28155 1
   29133    28154    28174 1
   29134    28154    28175 1
   29135    28155    28156 1
   29136    28155    28166 1
   29137    28155    28176 1
   29138    28156    28157 1
   29139    28156    28177 1
   29140    28156    28178 1
   29141    28157    28158 1
   29142    28157    28179 1
   29143    28157    28180 1
   29144    28158    28159 1
   29145    28158    28181 1
   29146    28158    28182 1
   29147    28159    28160 1
   29148    28159    28183 1
   29149    28159    28184 1
   29150    28160    28161 1
   29151    28160    28185 1
   29152    28160    28186 1
   29153    28161    28162 1
   29154    28161    28187 1
   29155    28161    28188 1
   29156    28162    28163 1
   29157    28162    28189 1
   29158    28162    28190 1
   29159    28163    28164 1
   29160    28163    28191 1
   29161    28163    28192 1
   29162    28164    28165 1
   29163    28164    28193 1
   29164    28164    28194 1
   29165    28165    28195 1
   29166    28165    28196 1
   29167    28165    28197 1
   29168    28166    28167 1
   29169    28166    28198 1
   29170    28166    28199 1
   29171    28167    28168 1
   29172    28167    28200 1
   29173    28167    28201 1
   29174    28168    28169 1
   29175    28168    28202 1
   29176    28168    28203 1
   29177    28169    28170 1
   29178    28169    28204 1
   29179    28169    28205 1
   29180    28170    28171 1
   29181    28170    28206 1
   29182    28170    28207 1
   29183    28171    28172 1
   29184    28171    28208 1
   29185    28171    28209 1
   29186    28172    28173 1
   29187    28172    28210 1
   29188    28172    28211 1
   29189    28173    28212 1
   29190    28173    28213 1
   29191    28173    28214 1
   29192    28215    28216 1
   29193    28215    28235 1
   29194    28215    28236 1
   29195    28216    28217 1
   29196    28216    28227 1
   29197    28216    28237 1
   29198    28217    28218 1
   29199    28217    28238 1
   29200    28217    28239 1
   29201    28218    28219 1
   29202    28218    28240 1
   29203    28218    28241 1
   29204    28219    28220 1
   29205    28219    28242 1
   29206    28219    28243 1
   29207    28220    28221 1
   29208    28220    28244 1
   29209    28220    28245 1
   29210    28221    28222 1
   29211    28221    28246 1
   29212    28221    28247 1
   29213    28222    28223 1
   29214    28222    28248 1
   29215    28222    28249 1
   29216    28223    28224 1
   29217    28223    28250 1
   29218    28223    28251 1
   29219    28224    28225 1
   29220    28224    28252 1
   29221    28224    28253 1
   29222    28225    28226 1
   29223    28225    28254 1
   29224    28225    28255 1
   29225    28226    28256 1
   29226    28226    28257 1
   29227    28226    28258 1
   29228    28227    28228 1
   29229    28227    28259 1
   29230    28227    28260 1
   29231    28228    28229 1
   29232    28228    28261 1
   29233    28228    28262 1
   29234    28229    28230 1
   29235    28229    28263 1
   29236    28229    28264 1
   29237    28230    28231 1
   29238    28230    28265 1
   29239    28230    28266 1
   29240    28231    28232 1
   29241    28231    28267 1
   29242    28231    28268 1
   29243    28232    28233 1
   29244    28232    28269 1
   29245    28232    28270 1
   29246    28233    28234 1
   29247    28233    28271 1
   29248    28233    28272 1
   29249    28234    28273 1
   29250    28234    28274 1
   29251    28234    28275 1
   29252    28276    28277 1
   29253    28276    28283 1
   29254    28276    28299 1
   29255    28276    28360 1
   29256    28277    28278 1
   29257    28277    28281 1
   29258    28278    28279 1
   29259    28278    28282 1
   29260    28279    28280 1
   29261    28280    28281 1
   29262    28281    28287 1
   29263    28282    28283 1
   29264    28282    28286 1
   29265    28283    28284 1
   29266    28284    28285 1
   29267    28284    28288 1
   29268    28285    28286 1
   29269    28285    28291 1
   29270    28289    28290 1
   29271    28289    28297 1
   29272    28290    28291 1
   29273    28290    28298 1
   29274    28291    28292 1
   29275    28292    28293 1
   29276    28292    28296 1
   29277    28293    28294 1
   29278    28294    28295 1
   29279    28295    28296 1
   29280    28296    28297 1
   29281    28297    28425 1
   29282    28299    28300 1
   29283    28299    28319 1
   29284    28299    28320 1
   29285    28300    28301 1
   29286    28300    28311 1
   29287    28300    28321 1
   29288    28301    28302 1
   29289    28301    28322 1
   29290    28301    28323 1
   29291    28302    28303 1
   29292    28302    28324 1
   29293    28302    28325 1
   29294    28303    28304 1
   29295    28303    28326 1
   29296    28303    28327 1
   29297    28304    28305 1
   29298    28304    28328 1
   29299    28304    28329 1
   29300    28305    28306 1
   29301    28305    28330 1
   29302    28305    28331 1
   29303    28306    28307 1
   29304    28306    28332 1
   29305    28306    28333 1
   29306    28307    28308 1
   29307    28307    28334 1
   29308    28307    28335 1
   29309    28308    28309 1
   29310    28308    28336 1
   29311    28308    28337 1
   29312    28309    28310 1
   29313    28309    28338 1
   29314    28309    28339 1
   29315    28310    28340 1
   29316    28310    28341 1
   29317    28310    28342 1
   29318    28311    28312 1
   29319    28311    28343 1
   29320    28311    28344 1
   29321    28312    28313 1
   29322    28312    28345 1
   29323    28312    28346 1
   29324    28313    28314 1
   29325    28313    28347 1
   29326    28313    28348 1
   29327    28314    28315 1
   29328    28314    28349 1
   29329    28314    28350 1
   29330    28315    28316 1
   29331    28315    28351 1
   29332    28315    28352 1
   29333    28316    28317 1
   29334    28316    28353 1
   29335    28316    28354 1
   29336    28317    28318 1
   29337    28317    28355 1
   29338    28317    28356 1
   29339    28318    28357 1
   29340    28318    28358 1
   29341    28318    28359 1
   29342    28360    28361 1
   29343    28360    28380 1
   29344    28360    28381 1
   29345    28361    28362 1
   29346    28361    28372 1
   29347    28361    28382 1
   29348    28362    28363 1
   29349    28362    28383 1
   29350    28362    28384 1
   29351    28363    28364 1
   29352    28363    28385 1
   29353    28363    28386 1
   29354    28364    28365 1
   29355    28364    28387 1
   29356    28364    28388 1
   29357    28365    28366 1
   29358    28365    28389 1
   29359    28365    28390 1
   29360    28366    28367 1
   29361    28366    28391 1
   29362    28366    28392 1
   29363    28367    28368 1
   29364    28367    28393 1
   29365    28367    28394 1
   29366    28368    28369 1
   29367    28368    28395 1
   29368    28368    28396 1
   29369    28369    28370 1
   29370    28369    28397 1
   29371    28369    28398 1
   29372    28370    28371 1
   29373    28370    28399 1
   29374    28370    28400 1
   29375    28371    28401 1
   29376    28371    28402 1
   29377    28371    28403 1
   29378    28372    28373 1
   29379    28372    28404 1
   29380    28372    28405 1
   29381    28373    28374 1
   29382    28373    28406 1
   29383    28373    28407 1
   29384    28374    28375 1
   29385    28374    28408 1
   29386    28374    28409 1
   29387    28375    28376 1
   29388    28375    28410 1
   29389    28375    28411 1
   29390    28376    28377 1
   29391    28376    28412 1
   29392    28376    28413 1
   29393    28377    28378 1
   29394    28377    28414 1
   29395    28377    28415 1
   29396    28378    28379 1
   29397    28378    28416 1
   29398    28378    28417 1
   29399    28379    28418 1
   29400    28379    28419 1
   29401    28379    28420 1
   29402    28421    28422 1
   29403    28421    28428 1
   29404    28421    28444 1
   29405    28421    28505 1
   29406    28422    28423 1
   29407    28422    28426 1
   29408    28423    28424 1
   29409    28423    28427 1
   29410    28424    28425 1
   29411    28425    28426 1
   29412    28426    28432 1
   29413    28427    28428 1
   29414    28427    28431 1
   29415    28428    28429 1
   29416    28429    28430 1
   29417    28429    28433 1
   29418    28430    28431 1
   29419    28430    28436 1
   29420    28434    28435 1
   29421    28434    28442 1
   29422    28435    28436 1
   29423    28435    28443 1
   29424    28436    28437 1
   29425    28437    28438 1
   29426    28437    28441 1
   29427    28438    28439 1
   29428    28439    28440 1
   29429    28440    28441 1
   29430    28441    28442 1
   29431    28442    28570 1
   29432    28444    28445 1
   29433    28444    28464 1
   29434    28444    28465 1
   29435    28445    28446 1
   29436    28445    28456 1
   29437    28445    28466 1
   29438    28446    28447 1
   29439    28446    28467 1
   29440    28446    28468 1
   29441    28447    28448 1
   29442    28447    28469 1
   29443    28447    28470 1
   29444    28448    28449 1
   29445    28448    28471 1
   29446    28448    28472 1
   29447    28449    28450 1
   29448    28449    28473 1
   29449    28449    28474 1
   29450    28450    28451 1
   29451    28450    28475 1
   29452    28450    28476 1
   29453    28451    28452 1
   29454    28451    28477 1
   29455    28451    28478 1
   29456    28452    28453 1
   29457    28452    28479 1
   29458    28452    28480 1
   29459    28453    28454 1
   29460    28453    28481 1
   29461    28453    28482 1
   29462    28454    28455 1
   29463    28454    28483 1
   29464    28454    28484 1
   29465    28455    28485 1
   29466    28455    28486 1
   29467    28455    28487 1
   29468    28456    28457 1
   29469    28456    28488 1
   29470    28456    28489 1
   29471    28457    28458 1
   29472    28457    28490 1
   29473    28457    28491 1
   29474    28458    28459 1
   29475    28458    28492 1
   29476    28458    28493 1
   29477    28459    28460 1
   29478    28459    28494 1
   29479    28459    28495 1
   29480    28460    28461 1
   29481    28460    28496 1
   29482    28460    28497 1
   29483    28461    28462 1
   29484    28461    28498 1
   29485    28461    28499 1
   29486    28462    28463 1
   29487    28462    28500 1
   29488    28462    28501 1
   29489    28463    28502 1
   29490    28463    28503 1
   29491    28463    28504 1
   29492    28505    28506 1
   29493    28505    28525 1
   29494    28505    28526 1
   29495    28506    28507 1
   29496    28506    28517 1
   29497    28506    28527 1
   29498    28507    28508 1
   29499    28507    28528 1
   29500    28507    28529 1
   29501    28508    28509 1
   29502    28508    28530 1
   29503    28508    28531 1
   29504    28509    28510 1
   29505    28509    28532 1
   29506    28509    28533 1
   29507    28510    28511 1
   29508    28510    28534 1
   29509    28510    28535 1
   29510    28511    28512 1
   29511    28511    28536 1
   29512    28511    28537 1
   29513    28512    28513 1
   29514    28512    28538 1
   29515    28512    28539 1
   29516    28513    28514 1
   29517    28513    28540 1
   29518    28513    28541 1
   29519    28514    28515 1
   29520    28514    28542 1
   29521    28514    28543 1
   29522    28515    28516 1
   29523    28515    28544 1
   29524    28515    28545 1
   29525    28516    28546 1
   29526    28516    28547 1
   29527    28516    28548 1
   29528    28517    28518 1
   29529    28517    28549 1
   29530    28517    28550 1
   29531    28518    28519 1
   29532    28518    28551 1
   29533    28518    28552 1
   29534    28519    28520 1
   29535    28519    28553 1
   29536    28519    28554 1
   29537    28520    28521 1
   29538    28520    28555 1
   29539    28520    28556 1
   29540    28521    28522 1
   29541    28521    28557 1
   29542    28521    28558 1
   29543    28522    28523 1
   29544    28522    28559 1
   29545    28522    28560 1
   29546    28523    28524 1
   29547    28523    28561 1
   29548    28523    28562 1
   29549    28524    28563 1
   29550    28524    28564 1
   29551    28524    28565 1
   29552    28566    28567 1
   29553    28566    28573 1
   29554    28566    28589 1
   29555    28566    28650 1
   29556    28567    28568 1
   29557    28567    28571 1
   29558    28568    28569 1
   29559    28568    28572 1
   29560    28569    28570 1
   29561    28570    28571 1
   29562    28571    28577 1
   29563    28572    28573 1
   29564    28572    28576 1
   29565    28573    28574 1
   29566    28574    28575 1
   29567    28574    28578 1
   29568    28575    28576 1
   29569    28575    28581 1
   29570    28579    28580 1
   29571    28579    28587 1
   29572    28580    28581 1
   29573    28580    28588 1
   29574    28581    28582 1
   29575    28582    28583 1
   29576    28582    28586 1
   29577    28583    28584 1
   29578    28584    28585 1
   29579    28585    28586 1
   29580    28586    28587 1
   29581    28587    28715 1
   29582    28589    28590 1
   29583    28589    28609 1
   29584    28589    28610 1
   29585    28590    28591 1
   29586    28590    28601 1
   29587    28590    28611 1
   29588    28591    28592 1
   29589    28591    28612 1
   29590    28591    28613 1
   29591    28592    28593 1
   29592    28592    28614 1
   29593    28592    28615 1
   29594    28593    28594 1
   29595    28593    28616 1
   29596    28593    28617 1
   29597    28594    28595 1
   29598    28594    28618 1
   29599    28594    28619 1
   29600    28595    28596 1
   29601    28595    28620 1
   29602    28595    28621 1
   29603    28596    28597 1
   29604    28596    28622 1
   29605    28596    28623 1
   29606    28597    28598 1
   29607    28597    28624 1
   29608    28597    28625 1
   29609    28598    28599 1
   29610    28598    28626 1
   29611    28598    28627 1
   29612    28599    28600 1
   29613    28599    28628 1
   29614    28599    28629 1
   29615    28600    28630 1
   29616    28600    28631 1
   29617    28600    28632 1
   29618    28601    28602 1
   29619    28601    28633 1
   29620    28601    28634 1
   29621    28602    28603 1
   29622    28602    28635 1
   29623    28602    28636 1
   29624    28603    28604 1
   29625    28603    28637 1
   29626    28603    28638 1
   29627    28604    28605 1
   29628    28604    28639 1
   29629    28604    28640 1
   29630    28605    28606 1
   29631    28605    28641 1
   29632    28605    28642 1
   29633    28606    28607 1
   29634    28606    28643 1
   29635    28606    28644 1
   29636    28607    28608 1
   29637    28607    28645 1
   29638    28607    28646 1
   29639    28608    28647 1
   29640    28608    28648 1
   29641    28608    28649 1
   29642    28650    28651 1
   29643    28650    28670 1
   29644    28650    28671 1
   29645    28651    28652 1
   29646    28651    28662 1
   29647    28651    28672 1
   29648    28652    28653 1
   29649    28652    28673 1
   29650    28652    28674 1
   29651    28653    28654 1
   29652    28653    28675 1
   29653    28653    28676 1
   29654    28654    28655 1
   29655    28654    28677 1
   29656    28654    28678 1
   29657    28655    28656 1
   29658    28655    28679 1
   29659    28655    28680 1
   29660    28656    28657 1
   29661    28656    28681 1
   29662    28656    28682 1
   29663    28657    28658 1
   29664    28657    28683 1
   29665    28657    28684 1
   29666    28658    28659 1
   29667    28658    28685 1
   29668    28658    28686 1
   29669    28659    28660 1
   29670    28659    28687 1
   29671    28659    28688 1
   29672    28660    28661 1
   29673    28660    28689 1
   29674    28660    28690 1
   29675    28661    28691 1
   29676    28661    28692 1
   29677    28661    28693 1
   29678    28662    28663 1
   29679    28662    28694 1
   29680    28662    28695 1
   29681    28663    28664 1
   29682    28663    28696 1
   29683    28663    28697 1
   29684    28664    28665 1
   29685    28664    28698 1
   29686    28664    28699 1
   29687    28665    28666 1
   29688    28665    28700 1
   29689    28665    28701 1
   29690    28666    28667 1
   29691    28666    28702 1
   29692    28666    28703 1
   29693    28667    28668 1
   29694    28667    28704 1
   29695    28667    28705 1
   29696    28668    28669 1
   29697    28668    28706 1
   29698    28668    28707 1
   29699    28669    28708 1
   29700    28669    28709 1
   29701    28669    28710 1
   29702    28711    28712 1
   29703    28711    28718 1
   29704    28711    28734 1
   29705    28711    28795 1
   29706    28712    28713 1
   29707    28712    28716 1
   29708    28713    28714 1
   29709    28713    28717 1
   29710    28714    28715 1
   29711    28715    28716 1
   29712    28716    28722 1
   29713    28717    28718 1
   29714    28717    28721 1
   29715    28718    28719 1
   29716    28719    28720 1
   29717    28719    28723 1
   29718    28720    28721 1
   29719    28720    28726 1
   29720    28724    28725 1
   29721    28724    28732 1
   29722    28725    28726 1
   29723    28725    28733 1
   29724    28726    28727 1
   29725    28727    28728 1
   29726    28727    28731 1
   29727    28728    28729 1
   29728    28729    28730 1
   29729    28730    28731 1
   29730    28731    28732 1
   29731    28732    28860 1
   29732    28734    28735 1
   29733    28734    28754 1
   29734    28734    28755 1
   29735    28735    28736 1
   29736    28735    28746 1
   29737    28735    28756 1
   29738    28736    28737 1
   29739    28736    28757 1
   29740    28736    28758 1
   29741    28737    28738 1
   29742    28737    28759 1
   29743    28737    28760 1
   29744    28738    28739 1
   29745    28738    28761 1
   29746    28738    28762 1
   29747    28739    28740 1
   29748    28739    28763 1
   29749    28739    28764 1
   29750    28740    28741 1
   29751    28740    28765 1
   29752    28740    28766 1
   29753    28741    28742 1
   29754    28741    28767 1
   29755    28741    28768 1
   29756    28742    28743 1
   29757    28742    28769 1
   29758    28742    28770 1
   29759    28743    28744 1
   29760    28743    28771 1
   29761    28743    28772 1
   29762    28744    28745 1
   29763    28744    28773 1
   29764    28744    28774 1
   29765    28745    28775 1
   29766    28745    28776 1
   29767    28745    28777 1
   29768    28746    28747 1
   29769    28746    28778 1
   29770    28746    28779 1
   29771    28747    28748 1
   29772    28747    28780 1
   29773    28747    28781 1
   29774    28748    28749 1
   29775    28748    28782 1
   29776    28748    28783 1
   29777    28749    28750 1
   29778    28749    28784 1
   29779    28749    28785 1
   29780    28750    28751 1
   29781    28750    28786 1
   29782    28750    28787 1
   29783    28751    28752 1
   29784    28751    28788 1
   29785    28751    28789 1
   29786    28752    28753 1
   29787    28752    28790 1
   29788    28752    28791 1
   29789    28753    28792 1
   29790    28753    28793 1
   29791    28753    28794 1
   29792    28795    28796 1
   29793    28795    28815 1
   29794    28795    28816 1
   29795    28796    28797 1
   29796    28796    28807 1
   29797    28796    28817 1
   29798    28797    28798 1
   29799    28797    28818 1
   29800    28797    28819 1
   29801    28798    28799 1
   29802    28798    28820 1
   29803    28798    28821 1
   29804    28799    28800 1
   29805    28799    28822 1
   29806    28799    28823 1
   29807    28800    28801 1
   29808    28800    28824 1
   29809    28800    28825 1
   29810    28801    28802 1
   29811    28801    28826 1
   29812    28801    28827 1
   29813    28802    28803 1
   29814    28802    28828 1
   29815    28802    28829 1
   29816    28803    28804 1
   29817    28803    28830 1
   29818    28803    28831 1
   29819    28804    28805 1
   29820    28804    28832 1
   29821    28804    28833 1
   29822    28805    28806 1
   29823    28805    28834 1
   29824    28805    28835 1
   29825    28806    28836 1
   29826    28806    28837 1
   29827    28806    28838 1
   29828    28807    28808 1
   29829    28807    28839 1
   29830    28807    28840 1
   29831    28808    28809 1
   29832    28808    28841 1
   29833    28808    28842 1
   29834    28809    28810 1
   29835    28809    28843 1
   29836    28809    28844 1
   29837    28810    28811 1
   29838    28810    28845 1
   29839    28810    28846 1
   29840    28811    28812 1
   29841    28811    28847 1
   29842    28811    28848 1
   29843    28812    28813 1
   29844    28812    28849 1
   29845    28812    28850 1
   29846    28813    28814 1
   29847    28813    28851 1
   29848    28813    28852 1
   29849    28814    28853 1
   29850    28814    28854 1
   29851    28814    28855 1
   29852    28856    28857 1
   29853    28856    28863 1
   29854    28856    28879 1
   29855    28856    28940 1
   29856    28857    28858 1
   29857    28857    28861 1
   29858    28858    28859 1
   29859    28858    28862 1
   29860    28859    28860 1
   29861    28860    28861 1
   29862    28861    28867 1
   29863    28862    28863 1
   29864    28862    28866 1
   29865    28863    28864 1
   29866    28864    28865 1
   29867    28864    28868 1
   29868    28865    28866 1
   29869    28865    28871 1
   29870    28869    28870 1
   29871    28869    28877 1
   29872    28870    28871 1
   29873    28870    28878 1
   29874    28871    28872 1
   29875    28872    28873 1
   29876    28872    28876 1
   29877    28873    28874 1
   29878    28874    28875 1
   29879    28875    28876 1
   29880    28876    28877 1
   29881    28877    29005 1
   29882    28879    28880 1
   29883    28879    28899 1
   29884    28879    28900 1
   29885    28880    28881 1
   29886    28880    28891 1
   29887    28880    28901 1
   29888    28881    28882 1
   29889    28881    28902 1
   29890    28881    28903 1
   29891    28882    28883 1
   29892    28882    28904 1
   29893    28882    28905 1
   29894    28883    28884 1
   29895    28883    28906 1
   29896    28883    28907 1
   29897    28884    28885 1
   29898    28884    28908 1
   29899    28884    28909 1
   29900    28885    28886 1
   29901    28885    28910 1
   29902    28885    28911 1
   29903    28886    28887 1
   29904    28886    28912 1
   29905    28886    28913 1
   29906    28887    28888 1
   29907    28887    28914 1
   29908    28887    28915 1
   29909    28888    28889 1
   29910    28888    28916 1
   29911    28888    28917 1
   29912    28889    28890 1
   29913    28889    28918 1
   29914    28889    28919 1
   29915    28890    28920 1
   29916    28890    28921 1
   29917    28890    28922 1
   29918    28891    28892 1
   29919    28891    28923 1
   29920    28891    28924 1
   29921    28892    28893 1
   29922    28892    28925 1
   29923    28892    28926 1
   29924    28893    28894 1
   29925    28893    28927 1
   29926    28893    28928 1
   29927    28894    28895 1
   29928    28894    28929 1
   29929    28894    28930 1
   29930    28895    28896 1
   29931    28895    28931 1
   29932    28895    28932 1
   29933    28896    28897 1
   29934    28896    28933 1
   29935    28896    28934 1
   29936    28897    28898 1
   29937    28897    28935 1
   29938    28897    28936 1
   29939    28898    28937 1
   29940    28898    28938 1
   29941    28898    28939 1
   29942    28940    28941 1
   29943    28940    28960 1
   29944    28940    28961 1
   29945    28941    28942 1
   29946    28941    28952 1
   29947    28941    28962 1
   29948    28942    28943 1
   29949    28942    28963 1
   29950    28942    28964 1
   29951    28943    28944 1
   29952    28943    28965 1
   29953    28943    28966 1
   29954    28944    28945 1
   29955    28944    28967 1
   29956    28944    28968 1
   29957    28945    28946 1
   29958    28945    28969 1
   29959    28945    28970 1
   29960    28946    28947 1
   29961    28946    28971 1
   29962    28946    28972 1
   29963    28947    28948 1
   29964    28947    28973 1
   29965    28947    28974 1
   29966    28948    28949 1
   29967    28948    28975 1
   29968    28948    28976 1
   29969    28949    28950 1
   29970    28949    28977 1
   29971    28949    28978 1
   29972    28950    28951 1
   29973    28950    28979 1
   29974    28950    28980 1
   29975    28951    28981 1
   29976    28951    28982 1
   29977    28951    28983 1
   29978    28952    28953 1
   29979    28952    28984 1
   29980    28952    28985 1
   29981    28953    28954 1
   29982    28953    28986 1
   29983    28953    28987 1
   29984    28954    28955 1
   29985    28954    28988 1
   29986    28954    28989 1
   29987    28955    28956 1
   29988    28955    28990 1
   29989    28955    28991 1
   29990    28956    28957 1
   29991    28956    28992 1
   29992    28956    28993 1
   29993    28957    28958 1
   29994    28957    28994 1
   29995    28957    28995 1
   29996    28958    28959 1
   29997    28958    28996 1
   29998    28958    28997 1
   29999    28959    28998 1
   30000    28959    28999 1
   30001    28959    29000 1
   30002    29001    29002 1
   30003    29001    29008 1
   30004    29001    29024 1
   30005    29001    29085 1
   30006    29002    29003 1
   30007    29002    29006 1
   30008    29003    29004 1
   30009    29003    29007 1
   30010    29004    29005 1
   30011    29005    29006 1
   30012    29006    29012 1
   30013    29007    29008 1
   30014    29007    29011 1
   30015    29008    29009 1
   30016    29009    29010 1
   30017    29009    29013 1
   30018    29010    29011 1
   30019    29010    29016 1
   30020    29014    29015 1
   30021    29014    29022 1
   30022    29015    29016 1
   30023    29015    29023 1
   30024    29016    29017 1
   30025    29017    29018 1
   30026    29017    29021 1
   30027    29018    29019 1
   30028    29019    29020 1
   30029    29020    29021 1
   30030    29021    29022 1
   30031    29022    29150 1
   30032    29024    29025 1
   30033    29024    29044 1
   30034    29024    29045 1
   30035    29025    29026 1
   30036    29025    29036 1
   30037    29025    29046 1
   30038    29026    29027 1
   30039    29026    29047 1
   30040    29026    29048 1
   30041    29027    29028 1
   30042    29027    29049 1
   30043    29027    29050 1
   30044    29028    29029 1
   30045    29028    29051 1
   30046    29028    29052 1
   30047    29029    29030 1
   30048    29029    29053 1
   30049    29029    29054 1
   30050    29030    29031 1
   30051    29030    29055 1
   30052    29030    29056 1
   30053    29031    29032 1
   30054    29031    29057 1
   30055    29031    29058 1
   30056    29032    29033 1
   30057    29032    29059 1
   30058    29032    29060 1
   30059    29033    29034 1
   30060    29033    29061 1
   30061    29033    29062 1
   30062    29034    29035 1
   30063    29034    29063 1
   30064    29034    29064 1
   30065    29035    29065 1
   30066    29035    29066 1
   30067    29035    29067 1
   30068    29036    29037 1
   30069    29036    29068 1
   30070    29036    29069 1
   30071    29037    29038 1
   30072    29037    29070 1
   30073    29037    29071 1
   30074    29038    29039 1
   30075    29038    29072 1
   30076    29038    29073 1
   30077    29039    29040 1
   30078    29039    29074 1
   30079    29039    29075 1
   30080    29040    29041 1
   30081    29040    29076 1
   30082    29040    29077 1
   30083    29041    29042 1
   30084    29041    29078 1
   30085    29041    29079 1
   30086    29042    29043 1
   30087    29042    29080 1
   30088    29042    29081 1
   30089    29043    29082 1
   30090    29043    29083 1
   30091    29043    29084 1
   30092    29085    29086 1
   30093    29085    29105 1
   30094    29085    29106 1
   30095    29086    29087 1
   30096    29086    29097 1
   30097    29086    29107 1
   30098    29087    29088 1
   30099    29087    29108 1
   30100    29087    29109 1
   30101    29088    29089 1
   30102    29088    29110 1
   30103    29088    29111 1
   30104    29089    29090 1
   30105    29089    29112 1
   30106    29089    29113 1
   30107    29090    29091 1
   30108    29090    29114 1
   30109    29090    29115 1
   30110    29091    29092 1
   30111    29091    29116 1
   30112    29091    29117 1
   30113    29092    29093 1
   30114    29092    29118 1
   30115    29092    29119 1
   30116    29093    29094 1
   30117    29093    29120 1
   30118    29093    29121 1
   30119    29094    29095 1
   30120    29094    29122 1
   30121    29094    29123 1
   30122    29095    29096 1
   30123    29095    29124 1
   30124    29095    29125 1
   30125    29096    29126 1
   30126    29096    29127 1
   30127    29096    29128 1
   30128    29097    29098 1
   30129    29097    29129 1
   30130    29097    29130 1
   30131    29098    29099 1
   30132    29098    29131 1
   30133    29098    29132 1
   30134    29099    29100 1
   30135    29099    29133 1
   30136    29099    29134 1
   30137    29100    29101 1
   30138    29100    29135 1
   30139    29100    29136 1
   30140    29101    29102 1
   30141    29101    29137 1
   30142    29101    29138 1
   30143    29102    29103 1
   30144    29102    29139 1
   30145    29102    29140 1
   30146    29103    29104 1
   30147    29103    29141 1
   30148    29103    29142 1
   30149    29104    29143 1
   30150    29104    29144 1
   30151    29104    29145 1
   30152    29146    29147 1
   30153    29146    29153 1
   30154    29146    29169 1
   30155    29146    29230 1
   30156    29147    29148 1
   30157    29147    29151 1
   30158    29148    29149 1
   30159    29148    29152 1
   30160    29149    29150 1
   30161    29150    29151 1
   30162    29151    29157 1
   30163    29152    29153 1
   30164    29152    29156 1
   30165    29153    29154 1
   30166    29154    29155 1
   30167    29154    29158 1
   30168    29155    29156 1
   30169    29155    29161 1
   30170    29159    29160 1
   30171    29159    29167 1
   30172    29160    29161 1
   30173    29160    29168 1
   30174    29161    29162 1
   30175    29162    29163 1
   30176    29162    29166 1
   30177    29163    29164 1
   30178    29164    29165 1
   30179    29165    29166 1
   30180    29166    29167 1
   30181    29167    29295 1
   30182    29169    29170 1
   30183    29169    29189 1
   30184    29169    29190 1
   30185    29170    29171 1
   30186    29170    29181 1
   30187    29170    29191 1
   30188    29171    29172 1
   30189    29171    29192 1
   30190    29171    29193 1
   30191    29172    29173 1
   30192    29172    29194 1
   30193    29172    29195 1
   30194    29173    29174 1
   30195    29173    29196 1
   30196    29173    29197 1
   30197    29174    29175 1
   30198    29174    29198 1
   30199    29174    29199 1
   30200    29175    29176 1
   30201    29175    29200 1
   30202    29175    29201 1
   30203    29176    29177 1
   30204    29176    29202 1
   30205    29176    29203 1
   30206    29177    29178 1
   30207    29177    29204 1
   30208    29177    29205 1
   30209    29178    29179 1
   30210    29178    29206 1
   30211    29178    29207 1
   30212    29179    29180 1
   30213    29179    29208 1
   30214    29179    29209 1
   30215    29180    29210 1
   30216    29180    29211 1
   30217    29180    29212 1
   30218    29181    29182 1
   30219    29181    29213 1
   30220    29181    29214 1
   30221    29182    29183 1
   30222    29182    29215 1
   30223    29182    29216 1
   30224    29183    29184 1
   30225    29183    29217 1
   30226    29183    29218 1
   30227    29184    29185 1
   30228    29184    29219 1
   30229    29184    29220 1
   30230    29185    29186 1
   30231    29185    29221 1
   30232    29185    29222 1
   30233    29186    29187 1
   30234    29186    29223 1
   30235    29186    29224 1
   30236    29187    29188 1
   30237    29187    29225 1
   30238    29187    29226 1
   30239    29188    29227 1
   30240    29188    29228 1
   30241    29188    29229 1
   30242    29230    29231 1
   30243    29230    29250 1
   30244    29230    29251 1
   30245    29231    29232 1
   30246    29231    29242 1
   30247    29231    29252 1
   30248    29232    29233 1
   30249    29232    29253 1
   30250    29232    29254 1
   30251    29233    29234 1
   30252    29233    29255 1
   30253    29233    29256 1
   30254    29234    29235 1
   30255    29234    29257 1
   30256    29234    29258 1
   30257    29235    29236 1
   30258    29235    29259 1
   30259    29235    29260 1
   30260    29236    29237 1
   30261    29236    29261 1
   30262    29236    29262 1
   30263    29237    29238 1
   30264    29237    29263 1
   30265    29237    29264 1
   30266    29238    29239 1
   30267    29238    29265 1
   30268    29238    29266 1
   30269    29239    29240 1
   30270    29239    29267 1
   30271    29239    29268 1
   30272    29240    29241 1
   30273    29240    29269 1
   30274    29240    29270 1
   30275    29241    29271 1
   30276    29241    29272 1
   30277    29241    29273 1
   30278    29242    29243 1
   30279    29242    29274 1
   30280    29242    29275 1
   30281    29243    29244 1
   30282    29243    29276 1
   30283    29243    29277 1
   30284    29244    29245 1
   30285    29244    29278 1
   30286    29244    29279 1
   30287    29245    29246 1
   30288    29245    29280 1
   30289    29245    29281 1
   30290    29246    29247 1
   30291    29246    29282 1
   30292    29246    29283 1
   30293    29247    29248 1
   30294    29247    29284 1
   30295    29247    29285 1
   30296    29248    29249 1
   30297    29248    29286 1
   30298    29248    29287 1
   30299    29249    29288 1
   30300    29249    29289 1
   30301    29249    29290 1
   30302    29291    29292 1
   30303    29291    29298 1
   30304    29291    29314 1
   30305    29291    29375 1
   30306    29292    29293 1
   30307    29292    29296 1
   30308    29293    29294 1
   30309    29293    29297 1
   30310    29294    29295 1
   30311    29295    29296 1
   30312    29296    29302 1
   30313    29297    29298 1
   30314    29297    29301 1
   30315    29298    29299 1
   30316    29299    29300 1
   30317    29299    29303 1
   30318    29300    29301 1
   30319    29300    29306 1
   30320    29304    29305 1
   30321    29304    29312 1
   30322    29305    29306 1
   30323    29305    29313 1
   30324    29306    29307 1
   30325    29307    29308 1
   30326    29307    29311 1
   30327    29308    29309 1
   30328    29309    29310 1
   30329    29310    29311 1
   30330    29311    29312 1
   30331    29312    29440 1
   30332    29314    29315 1
   30333    29314    29334 1
   30334    29314    29335 1
   30335    29315    29316 1
   30336    29315    29326 1
   30337    29315    29336 1
   30338    29316    29317 1
   30339    29316    29337 1
   30340    29316    29338 1
   30341    29317    29318 1
   30342    29317    29339 1
   30343    29317    29340 1
   30344    29318    29319 1
   30345    29318    29341 1
   30346    29318    29342 1
   30347    29319    29320 1
   30348    29319    29343 1
   30349    29319    29344 1
   30350    29320    29321 1
   30351    29320    29345 1
   30352    29320    29346 1
   30353    29321    29322 1
   30354    29321    29347 1
   30355    29321    29348 1
   30356    29322    29323 1
   30357    29322    29349 1
   30358    29322    29350 1
   30359    29323    29324 1
   30360    29323    29351 1
   30361    29323    29352 1
   30362    29324    29325 1
   30363    29324    29353 1
   30364    29324    29354 1
   30365    29325    29355 1
   30366    29325    29356 1
   30367    29325    29357 1
   30368    29326    29327 1
   30369    29326    29358 1
   30370    29326    29359 1
   30371    29327    29328 1
   30372    29327    29360 1
   30373    29327    29361 1
   30374    29328    29329 1
   30375    29328    29362 1
   30376    29328    29363 1
   30377    29329    29330 1
   30378    29329    29364 1
   30379    29329    29365 1
   30380    29330    29331 1
   30381    29330    29366 1
   30382    29330    29367 1
   30383    29331    29332 1
   30384    29331    29368 1
   30385    29331    29369 1
   30386    29332    29333 1
   30387    29332    29370 1
   30388    29332    29371 1
   30389    29333    29372 1
   30390    29333    29373 1
   30391    29333    29374 1
   30392    29375    29376 1
   30393    29375    29395 1
   30394    29375    29396 1
   30395    29376    29377 1
   30396    29376    29387 1
   30397    29376    29397 1
   30398    29377    29378 1
   30399    29377    29398 1
   30400    29377    29399 1
   30401    29378    29379 1
   30402    29378    29400 1
   30403    29378    29401 1
   30404    29379    29380 1
   30405    29379    29402 1
   30406    29379    29403 1
   30407    29380    29381 1
   30408    29380    29404 1
   30409    29380    29405 1
   30410    29381    29382 1
   30411    29381    29406 1
   30412    29381    29407 1
   30413    29382    29383 1
   30414    29382    29408 1
   30415    29382    29409 1
   30416    29383    29384 1
   30417    29383    29410 1
   30418    29383    29411 1
   30419    29384    29385 1
   30420    29384    29412 1
   30421    29384    29413 1
   30422    29385    29386 1
   30423    29385    29414 1
   30424    29385    29415 1
   30425    29386    29416 1
   30426    29386    29417 1
   30427    29386    29418 1
   30428    29387    29388 1
   30429    29387    29419 1
   30430    29387    29420 1
   30431    29388    29389 1
   30432    29388    29421 1
   30433    29388    29422 1
   30434    29389    29390 1
   30435    29389    29423 1
   30436    29389    29424 1
   30437    29390    29391 1
   30438    29390    29425 1
   30439    29390    29426 1
   30440    29391    29392 1
   30441    29391    29427 1
   30442    29391    29428 1
   30443    29392    29393 1
   30444    29392    29429 1
   30445    29392    29430 1
   30446    29393    29394 1
   30447    29393    29431 1
   30448    29393    29432 1
   30449    29394    29433 1
   30450    29394    29434 1
   30451    29394    29435 1
   30452    29436    29437 1
   30453    29436    29443 1
   30454    29436    29459 1
   30455    29436    29520 1
   30456    29437    29438 1
   30457    29437    29441 1
   30458    29438    29439 1
   30459    29438    29442 1
   30460    29439    29440 1
   30461    29440    29441 1
   30462    29441    29447 1
   30463    29442    29443 1
   30464    29442    29446 1
   30465    29443    29444 1
   30466    29444    29445 1
   30467    29444    29448 1
   30468    29445    29446 1
   30469    29445    29451 1
   30470    29449    29450 1
   30471    29449    29457 1
   30472    29450    29451 1
   30473    29450    29458 1
   30474    29451    29452 1
   30475    29452    29453 1
   30476    29452    29456 1
   30477    29453    29454 1
   30478    29454    29455 1
   30479    29455    29456 1
   30480    29456    29457 1
   30481    29457    29585 1
   30482    29459    29460 1
   30483    29459    29479 1
   30484    29459    29480 1
   30485    29460    29461 1
   30486    29460    29471 1
   30487    29460    29481 1
   30488    29461    29462 1
   30489    29461    29482 1
   30490    29461    29483 1
   30491    29462    29463 1
   30492    29462    29484 1
   30493    29462    29485 1
   30494    29463    29464 1
   30495    29463    29486 1
   30496    29463    29487 1
   30497    29464    29465 1
   30498    29464    29488 1
   30499    29464    29489 1
   30500    29465    29466 1
   30501    29465    29490 1
   30502    29465    29491 1
   30503    29466    29467 1
   30504    29466    29492 1
   30505    29466    29493 1
   30506    29467    29468 1
   30507    29467    29494 1
   30508    29467    29495 1
   30509    29468    29469 1
   30510    29468    29496 1
   30511    29468    29497 1
   30512    29469    29470 1
   30513    29469    29498 1
   30514    29469    29499 1
   30515    29470    29500 1
   30516    29470    29501 1
   30517    29470    29502 1
   30518    29471    29472 1
   30519    29471    29503 1
   30520    29471    29504 1
   30521    29472    29473 1
   30522    29472    29505 1
   30523    29472    29506 1
   30524    29473    29474 1
   30525    29473    29507 1
   30526    29473    29508 1
   30527    29474    29475 1
   30528    29474    29509 1
   30529    29474    29510 1
   30530    29475    29476 1
   30531    29475    29511 1
   30532    29475    29512 1
   30533    29476    29477 1
   30534    29476    29513 1
   30535    29476    29514 1
   30536    29477    29478 1
   30537    29477    29515 1
   30538    29477    29516 1
   30539    29478    29517 1
   30540    29478    29518 1
   30541    29478    29519 1
   30542    29520    29521 1
   30543    29520    29540 1
   30544    29520    29541 1
   30545    29521    29522 1
   30546    29521    29532 1
   30547    29521    29542 1
   30548    29522    29523 1
   30549    29522    29543 1
   30550    29522    29544 1
   30551    29523    29524 1
   30552    29523    29545 1
   30553    29523    29546 1
   30554    29524    29525 1
   30555    29524    29547 1
   30556    29524    29548 1
   30557    29525    29526 1
   30558    29525    29549 1
   30559    29525    29550 1
   30560    29526    29527 1
   30561    29526    29551 1
   30562    29526    29552 1
   30563    29527    29528 1
   30564    29527    29553 1
   30565    29527    29554 1
   30566    29528    29529 1
   30567    29528    29555 1
   30568    29528    29556 1
   30569    29529    29530 1
   30570    29529    29557 1
   30571    29529    29558 1
   30572    29530    29531 1
   30573    29530    29559 1
   30574    29530    29560 1
   30575    29531    29561 1
   30576    29531    29562 1
   30577    29531    29563 1
   30578    29532    29533 1
   30579    29532    29564 1
   30580    29532    29565 1
   30581    29533    29534 1
   30582    29533    29566 1
   30583    29533    29567 1
   30584    29534    29535 1
   30585    29534    29568 1
   30586    29534    29569 1
   30587    29535    29536 1
   30588    29535    29570 1
   30589    29535    29571 1
   30590    29536    29537 1
   30591    29536    29572 1
   30592    29536    29573 1
   30593    29537    29538 1
   30594    29537    29574 1
   30595    29537    29575 1
   30596    29538    29539 1
   30597    29538    29576 1
   30598    29538    29577 1
   30599    29539    29578 1
   30600    29539    29579 1
   30601    29539    29580 1
   30602    29581    29582 1
   30603    29581    29588 1
   30604    29581    29604 1
   30605    29581    29665 1
   30606    29582    29583 1
   30607    29582    29586 1
   30608    29583    29584 1
   30609    29583    29587 1
   30610    29584    29585 1
   30611    29585    29586 1
   30612    29586    29592 1
   30613    29587    29588 1
   30614    29587    29591 1
   30615    29588    29589 1
   30616    29589    29590 1
   30617    29589    29593 1
   30618    29590    29591 1
   30619    29590    29596 1
   30620    29594    29595 1
   30621    29594    29602 1
   30622    29595    29596 1
   30623    29595    29603 1
   30624    29596    29597 1
   30625    29597    29598 1
   30626    29597    29601 1
   30627    29598    29599 1
   30628    29599    29600 1
   30629    29600    29601 1
   30630    29601    29602 1
   30631    29602    29730 1
   30632    29604    29605 1
   30633    29604    29624 1
   30634    29604    29625 1
   30635    29605    29606 1
   30636    29605    29616 1
   30637    29605    29626 1
   30638    29606    29607 1
   30639    29606    29627 1
   30640    29606    29628 1
   30641    29607    29608 1
   30642    29607    29629 1
   30643    29607    29630 1
   30644    29608    29609 1
   30645    29608    29631 1
   30646    29608    29632 1
   30647    29609    29610 1
   30648    29609    29633 1
   30649    29609    29634 1
   30650    29610    29611 1
   30651    29610    29635 1
   30652    29610    29636 1
   30653    29611    29612 1
   30654    29611    29637 1
   30655    29611    29638 1
   30656    29612    29613 1
   30657    29612    29639 1
   30658    29612    29640 1
   30659    29613    29614 1
   30660    29613    29641 1
   30661    29613    29642 1
   30662    29614    29615 1
   30663    29614    29643 1
   30664    29614    29644 1
   30665    29615    29645 1
   30666    29615    29646 1
   30667    29615    29647 1
   30668    29616    29617 1
   30669    29616    29648 1
   30670    29616    29649 1
   30671    29617    29618 1
   30672    29617    29650 1
   30673    29617    29651 1
   30674    29618    29619 1
   30675    29618    29652 1
   30676    29618    29653 1
   30677    29619    29620 1
   30678    29619    29654 1
   30679    29619    29655 1
   30680    29620    29621 1
   30681    29620    29656 1
   30682    29620    29657 1
   30683    29621    29622 1
   30684    29621    29658 1
   30685    29621    29659 1
   30686    29622    29623 1
   30687    29622    29660 1
   30688    29622    29661 1
   30689    29623    29662 1
   30690    29623    29663 1
   30691    29623    29664 1
   30692    29665    29666 1
   30693    29665    29685 1
   30694    29665    29686 1
   30695    29666    29667 1
   30696    29666    29677 1
   30697    29666    29687 1
   30698    29667    29668 1
   30699    29667    29688 1
   30700    29667    29689 1
   30701    29668    29669 1
   30702    29668    29690 1
   30703    29668    29691 1
   30704    29669    29670 1
   30705    29669    29692 1
   30706    29669    29693 1
   30707    29670    29671 1
   30708    29670    29694 1
   30709    29670    29695 1
   30710    29671    29672 1
   30711    29671    29696 1
   30712    29671    29697 1
   30713    29672    29673 1
   30714    29672    29698 1
   30715    29672    29699 1
   30716    29673    29674 1
   30717    29673    29700 1
   30718    29673    29701 1
   30719    29674    29675 1
   30720    29674    29702 1
   30721    29674    29703 1
   30722    29675    29676 1
   30723    29675    29704 1
   30724    29675    29705 1
   30725    29676    29706 1
   30726    29676    29707 1
   30727    29676    29708 1
   30728    29677    29678 1
   30729    29677    29709 1
   30730    29677    29710 1
   30731    29678    29679 1
   30732    29678    29711 1
   30733    29678    29712 1
   30734    29679    29680 1
   30735    29679    29713 1
   30736    29679    29714 1
   30737    29680    29681 1
   30738    29680    29715 1
   30739    29680    29716 1
   30740    29681    29682 1
   30741    29681    29717 1
   30742    29681    29718 1
   30743    29682    29683 1
   30744    29682    29719 1
   30745    29682    29720 1
   30746    29683    29684 1
   30747    29683    29721 1
   30748    29683    29722 1
   30749    29684    29723 1
   30750    29684    29724 1
   30751    29684    29725 1
   30752    29726    29727 1
   30753    29726    29733 1
   30754    29726    29749 1
   30755    29726    29810 1
   30756    29727    29728 1
   30757    29727    29731 1
   30758    29728    29729 1
   30759    29728    29732 1
   30760    29729    29730 1
   30761    29730    29731 1
   30762    29731    29737 1
   30763    29732    29733 1
   30764    29732    29736 1
   30765    29733    29734 1
   30766    29734    29735 1
   30767    29734    29738 1
   30768    29735    29736 1
   30769    29735    29741 1
   30770    29739    29740 1
   30771    29739    29747 1
   30772    29740    29741 1
   30773    29740    29748 1
   30774    29741    29742 1
   30775    29742    29743 1
   30776    29742    29746 1
   30777    29743    29744 1
   30778    29744    29745 1
   30779    29745    29746 1
   30780    29746    29747 1
   30781    29747    29875 1
   30782    29749    29750 1
   30783    29749    29769 1
   30784    29749    29770 1
   30785    29750    29751 1
   30786    29750    29761 1
   30787    29750    29771 1
   30788    29751    29752 1
   30789    29751    29772 1
   30790    29751    29773 1
   30791    29752    29753 1
   30792    29752    29774 1
   30793    29752    29775 1
   30794    29753    29754 1
   30795    29753    29776 1
   30796    29753    29777 1
   30797    29754    29755 1
   30798    29754    29778 1
   30799    29754    29779 1
   30800    29755    29756 1
   30801    29755    29780 1
   30802    29755    29781 1
   30803    29756    29757 1
   30804    29756    29782 1
   30805    29756    29783 1
   30806    29757    29758 1
   30807    29757    29784 1
   30808    29757    29785 1
   30809    29758    29759 1
   30810    29758    29786 1
   30811    29758    29787 1
   30812    29759    29760 1
   30813    29759    29788 1
   30814    29759    29789 1
   30815    29760    29790 1
   30816    29760    29791 1
   30817    29760    29792 1
   30818    29761    29762 1
   30819    29761    29793 1
   30820    29761    29794 1
   30821    29762    29763 1
   30822    29762    29795 1
   30823    29762    29796 1
   30824    29763    29764 1
   30825    29763    29797 1
   30826    29763    29798 1
   30827    29764    29765 1
   30828    29764    29799 1
   30829    29764    29800 1
   30830    29765    29766 1
   30831    29765    29801 1
   30832    29765    29802 1
   30833    29766    29767 1
   30834    29766    29803 1
   30835    29766    29804 1
   30836    29767    29768 1
   30837    29767    29805 1
   30838    29767    29806 1
   30839    29768    29807 1
   30840    29768    29808 1
   30841    29768    29809 1
   30842    29810    29811 1
   30843    29810    29830 1
   30844    29810    29831 1
   30845    29811    29812 1
   30846    29811    29822 1
   30847    29811    29832 1
   30848    29812    29813 1
   30849    29812    29833 1
   30850    29812    29834 1
   30851    29813    29814 1
   30852    29813    29835 1
   30853    29813    29836 1
   30854    29814    29815 1
   30855    29814    29837 1
   30856    29814    29838 1
   30857    29815    29816 1
   30858    29815    29839 1
   30859    29815    29840 1
   30860    29816    29817 1
   30861    29816    29841 1
   30862    29816    29842 1
   30863    29817    29818 1
   30864    29817    29843 1
   30865    29817    29844 1
   30866    29818    29819 1
   30867    29818    29845 1
   30868    29818    29846 1
   30869    29819    29820 1
   30870    29819    29847 1
   30871    29819    29848 1
   30872    29820    29821 1
   30873    29820    29849 1
   30874    29820    29850 1
   30875    29821    29851 1
   30876    29821    29852 1
   30877    29821    29853 1
   30878    29822    29823 1
   30879    29822    29854 1
   30880    29822    29855 1
   30881    29823    29824 1
   30882    29823    29856 1
   30883    29823    29857 1
   30884    29824    29825 1
   30885    29824    29858 1
   30886    29824    29859 1
   30887    29825    29826 1
   30888    29825    29860 1
   30889    29825    29861 1
   30890    29826    29827 1
   30891    29826    29862 1
   30892    29826    29863 1
   30893    29827    29828 1
   30894    29827    29864 1
   30895    29827    29865 1
   30896    29828    29829 1
   30897    29828    29866 1
   30898    29828    29867 1
   30899    29829    29868 1
   30900    29829    29869 1
   30901    29829    29870 1
   30902    29871    29872 1
   30903    29871    29878 1
   30904    29871    29894 1
   30905    29871    29955 1
   30906    29872    29873 1
   30907    29872    29876 1
   30908    29873    29874 1
   30909    29873    29877 1
   30910    29874    29875 1
   30911    29875    29876 1
   30912    29876    29882 1
   30913    29877    29878 1
   30914    29877    29881 1
   30915    29878    29879 1
   30916    29879    29880 1
   30917    29879    29883 1
   30918    29880    29881 1
   30919    29880    29886 1
   30920    29884    29885 1
   30921    29884    29892 1
   30922    29885    29886 1
   30923    29885    29893 1
   30924    29886    29887 1
   30925    29887    29888 1
   30926    29887    29891 1
   30927    29888    29889 1
   30928    29889    29890 1
   30929    29890    29891 1
   30930    29891    29892 1
   30931    29892    30020 1
   30932    29894    29895 1
   30933    29894    29914 1
   30934    29894    29915 1
   30935    29895    29896 1
   30936    29895    29906 1
   30937    29895    29916 1
   30938    29896    29897 1
   30939    29896    29917 1
   30940    29896    29918 1
   30941    29897    29898 1
   30942    29897    29919 1
   30943    29897    29920 1
   30944    29898    29899 1
   30945    29898    29921 1
   30946    29898    29922 1
   30947    29899    29900 1
   30948    29899    29923 1
   30949    29899    29924 1
   30950    29900    29901 1
   30951    29900    29925 1
   30952    29900    29926 1
   30953    29901    29902 1
   30954    29901    29927 1
   30955    29901    29928 1
   30956    29902    29903 1
   30957    29902    29929 1
   30958    29902    29930 1
   30959    29903    29904 1
   30960    29903    29931 1
   30961    29903    29932 1
   30962    29904    29905 1
   30963    29904    29933 1
   30964    29904    29934 1
   30965    29905    29935 1
   30966    29905    29936 1
   30967    29905    29937 1
   30968    29906    29907 1
   30969    29906    29938 1
   30970    29906    29939 1
   30971    29907    29908 1
   30972    29907    29940 1
   30973    29907    29941 1
   30974    29908    29909 1
   30975    29908    29942 1
   30976    29908    29943 1
   30977    29909    29910 1
   30978    29909    29944 1
   30979    29909    29945 1
   30980    29910    29911 1
   30981    29910    29946 1
   30982    29910    29947 1
   30983    29911    29912 1
   30984    29911    29948 1
   30985    29911    29949 1
   30986    29912    29913 1
   30987    29912    29950 1
   30988    29912    29951 1
   30989    29913    29952 1
   30990    29913    29953 1
   30991    29913    29954 1
   30992    29955    29956 1
   30993    29955    29975 1
   30994    29955    29976 1
   30995    29956    29957 1
   30996    29956    29967 1
   30997    29956    29977 1
   30998    29957    29958 1
   30999    29957    29978 1
   31000    29957    29979 1
   31001    29958    29959 1
   31002    29958    29980 1
   31003    29958    29981 1
   31004    29959    29960 1
   31005    29959    29982 1
   31006    29959    29983 1
   31007    29960    29961 1
   31008    29960    29984 1
   31009    29960    29985 1
   31010    29961    29962 1
   31011    29961    29986 1
   31012    29961    29987 1
   31013    29962    29963 1
   31014    29962    29988 1
   31015    29962    29989 1
   31016    29963    29964 1
   31017    29963    29990 1
   31018    29963    29991 1
   31019    29964    29965 1
   31020    29964    29992 1
   31021    29964    29993 1
   31022    29965    29966 1
   31023    29965    29994 1
   31024    29965    29995 1
   31025    29966    29996 1
   31026    29966    29997 1
   31027    29966    29998 1
   31028    29967    29968 1
   31029    29967    29999 1
   31030    29967    30000 1
   31031    29968    29969 1
   31032    29968    30001 1
   31033    29968    30002 1
   31034    29969    29970 1
   31035    29969    30003 1
   31036    29969    30004 1
   31037    29970    29971 1
   31038    29970    30005 1
   31039    29970    30006 1
   31040    29971    29972 1
   31041    29971    30007 1
   31042    29971    30008 1
   31043    29972    29973 1
   31044    29972    30009 1
   31045    29972    30010 1
   31046    29973    29974 1
   31047    29973    30011 1
   31048    29973    30012 1
   31049    29974    30013 1
   31050    29974    30014 1
   31051    29974    30015 1
   31052    30016    30017 1
   31053    30016    30023 1
   31054    30016    30039 1
   31055    30016    30100 1
   31056    30017    30018 1
   31057    30017    30021 1
   31058    30018    30019 1
   31059    30018    30022 1
   31060    30019    30020 1
   31061    30020    30021 1
   31062    30021    30027 1
   31063    30022    30023 1
   31064    30022    30026 1
   31065    30023    30024 1
   31066    30024    30025 1
   31067    30024    30028 1
   31068    30025    30026 1
   31069    30025    30031 1
   31070    30029    30030 1
   31071    30029    30037 1
   31072    30030    30031 1
   31073    30030    30038 1
   31074    30031    30032 1
   31075    30032    30033 1
   31076    30032    30036 1
   31077    30033    30034 1
   31078    30034    30035 1
   31079    30035    30036 1
   31080    30036    30037 1
   31081    30037    30165 1
   31082    30039    30040 1
   31083    30039    30059 1
   31084    30039    30060 1
   31085    30040    30041 1
   31086    30040    30051 1
   31087    30040    30061 1
   31088    30041    30042 1
   31089    30041    30062 1
   31090    30041    30063 1
   31091    30042    30043 1
   31092    30042    30064 1
   31093    30042    30065 1
   31094    30043    30044 1
   31095    30043    30066 1
   31096    30043    30067 1
   31097    30044    30045 1
   31098    30044    30068 1
   31099    30044    30069 1
   31100    30045    30046 1
   31101    30045    30070 1
   31102    30045    30071 1
   31103    30046    30047 1
   31104    30046    30072 1
   31105    30046    30073 1
   31106    30047    30048 1
   31107    30047    30074 1
   31108    30047    30075 1
   31109    30048    30049 1
   31110    30048    30076 1
   31111    30048    30077 1
   31112    30049    30050 1
   31113    30049    30078 1
   31114    30049    30079 1
   31115    30050    30080 1
   31116    30050    30081 1
   31117    30050    30082 1
   31118    30051    30052 1
   31119    30051    30083 1
   31120    30051    30084 1
   31121    30052    30053 1
   31122    30052    30085 1
   31123    30052    30086 1
   31124    30053    30054 1
   31125    30053    30087 1
   31126    30053    30088 1
   31127    30054    30055 1
   31128    30054    30089 1
   31129    30054    30090 1
   31130    30055    30056 1
   31131    30055    30091 1
   31132    30055    30092 1
   31133    30056    30057 1
   31134    30056    30093 1
   31135    30056    30094 1
   31136    30057    30058 1
   31137    30057    30095 1
   31138    30057    30096 1
   31139    30058    30097 1
   31140    30058    30098 1
   31141    30058    30099 1
   31142    30100    30101 1
   31143    30100    30120 1
   31144    30100    30121 1
   31145    30101    30102 1
   31146    30101    30112 1
   31147    30101    30122 1
   31148    30102    30103 1
   31149    30102    30123 1
   31150    30102    30124 1
   31151    30103    30104 1
   31152    30103    30125 1
   31153    30103    30126 1
   31154    30104    30105 1
   31155    30104    30127 1
   31156    30104    30128 1
   31157    30105    30106 1
   31158    30105    30129 1
   31159    30105    30130 1
   31160    30106    30107 1
   31161    30106    30131 1
   31162    30106    30132 1
   31163    30107    30108 1
   31164    30107    30133 1
   31165    30107    30134 1
   31166    30108    30109 1
   31167    30108    30135 1
   31168    30108    30136 1
   31169    30109    30110 1
   31170    30109    30137 1
   31171    30109    30138 1
   31172    30110    30111 1
   31173    30110    30139 1
   31174    30110    30140 1
   31175    30111    30141 1
   31176    30111    30142 1
   31177    30111    30143 1
   31178    30112    30113 1
   31179    30112    30144 1
   31180    30112    30145 1
   31181    30113    30114 1
   31182    30113    30146 1
   31183    30113    30147 1
   31184    30114    30115 1
   31185    30114    30148 1
   31186    30114    30149 1
   31187    30115    30116 1
   31188    30115    30150 1
   31189    30115    30151 1
   31190    30116    30117 1
   31191    30116    30152 1
   31192    30116    30153 1
   31193    30117    30118 1
   31194    30117    30154 1
   31195    30117    30155 1
   31196    30118    30119 1
   31197    30118    30156 1
   31198    30118    30157 1
   31199    30119    30158 1
   31200    30119    30159 1
   31201    30119    30160 1
   31202    30161    30162 1
   31203    30161    30168 1
   31204    30161    30184 1
   31205    30161    30245 1
   31206    30162    30163 1
   31207    30162    30166 1
   31208    30163    30164 1
   31209    30163    30167 1
   31210    30164    30165 1
   31211    30165    30166 1
   31212    30166    30172 1
   31213    30167    30168 1
   31214    30167    30171 1
   31215    30168    30169 1
   31216    30169    30170 1
   31217    30169    30173 1
   31218    30170    30171 1
   31219    30170    30176 1
   31220    30174    30175 1
   31221    30174    30182 1
   31222    30175    30176 1
   31223    30175    30183 1
   31224    30176    30177 1
   31225    30177    30178 1
   31226    30177    30181 1
   31227    30178    30179 1
   31228    30179    30180 1
   31229    30180    30181 1
   31230    30181    30182 1
   31231    30182    30310 1
   31232    30184    30185 1
   31233    30184    30204 1
   31234    30184    30205 1
   31235    30185    30186 1
   31236    30185    30196 1
   31237    30185    30206 1
   31238    30186    30187 1
   31239    30186    30207 1
   31240    30186    30208 1
   31241    30187    30188 1
   31242    30187    30209 1
   31243    30187    30210 1
   31244    30188    30189 1
   31245    30188    30211 1
   31246    30188    30212 1
   31247    30189    30190 1
   31248    30189    30213 1
   31249    30189    30214 1
   31250    30190    30191 1
   31251    30190    30215 1
   31252    30190    30216 1
   31253    30191    30192 1
   31254    30191    30217 1
   31255    30191    30218 1
   31256    30192    30193 1
   31257    30192    30219 1
   31258    30192    30220 1
   31259    30193    30194 1
   31260    30193    30221 1
   31261    30193    30222 1
   31262    30194    30195 1
   31263    30194    30223 1
   31264    30194    30224 1
   31265    30195    30225 1
   31266    30195    30226 1
   31267    30195    30227 1
   31268    30196    30197 1
   31269    30196    30228 1
   31270    30196    30229 1
   31271    30197    30198 1
   31272    30197    30230 1
   31273    30197    30231 1
   31274    30198    30199 1
   31275    30198    30232 1
   31276    30198    30233 1
   31277    30199    30200 1
   31278    30199    30234 1
   31279    30199    30235 1
   31280    30200    30201 1
   31281    30200    30236 1
   31282    30200    30237 1
   31283    30201    30202 1
   31284    30201    30238 1
   31285    30201    30239 1
   31286    30202    30203 1
   31287    30202    30240 1
   31288    30202    30241 1
   31289    30203    30242 1
   31290    30203    30243 1
   31291    30203    30244 1
   31292    30245    30246 1
   31293    30245    30265 1
   31294    30245    30266 1
   31295    30246    30247 1
   31296    30246    30257 1
   31297    30246    30267 1
   31298    30247    30248 1
   31299    30247    30268 1
   31300    30247    30269 1
   31301    30248    30249 1
   31302    30248    30270 1
   31303    30248    30271 1
   31304    30249    30250 1
   31305    30249    30272 1
   31306    30249    30273 1
   31307    30250    30251 1
   31308    30250    30274 1
   31309    30250    30275 1
   31310    30251    30252 1
   31311    30251    30276 1
   31312    30251    30277 1
   31313    30252    30253 1
   31314    30252    30278 1
   31315    30252    30279 1
   31316    30253    30254 1
   31317    30253    30280 1
   31318    30253    30281 1
   31319    30254    30255 1
   31320    30254    30282 1
   31321    30254    30283 1
   31322    30255    30256 1
   31323    30255    30284 1
   31324    30255    30285 1
   31325    30256    30286 1
   31326    30256    30287 1
   31327    30256    30288 1
   31328    30257    30258 1
   31329    30257    30289 1
   31330    30257    30290 1
   31331    30258    30259 1
   31332    30258    30291 1
   31333    30258    30292 1
   31334    30259    30260 1
   31335    30259    30293 1
   31336    30259    30294 1
   31337    30260    30261 1
   31338    30260    30295 1
   31339    30260    30296 1
   31340    30261    30262 1
   31341    30261    30297 1
   31342    30261    30298 1
   31343    30262    30263 1
   31344    30262    30299 1
   31345    30262    30300 1
   31346    30263    30264 1
   31347    30263    30301 1
   31348    30263    30302 1
   31349    30264    30303 1
   31350    30264    30304 1
   31351    30264    30305 1
   31352    30306    30307 1
   31353    30306    30313 1
   31354    30306    30329 1
   31355    30306    30390 1
   31356    30307    30308 1
   31357    30307    30311 1
   31358    30308    30309 1
   31359    30308    30312 1
   31360    30309    30310 1
   31361    30310    30311 1
   31362    30311    30317 1
   31363    30312    30313 1
   31364    30312    30316 1
   31365    30313    30314 1
   31366    30314    30315 1
   31367    30314    30318 1
   31368    30315    30316 1
   31369    30315    30321 1
   31370    30319    30320 1
   31371    30319    30327 1
   31372    30320    30321 1
   31373    30320    30328 1
   31374    30321    30322 1
   31375    30322    30323 1
   31376    30322    30326 1
   31377    30323    30324 1
   31378    30324    30325 1
   31379    30325    30326 1
   31380    30326    30327 1
   31381    30327    30455 1
   31382    30329    30330 1
   31383    30329    30349 1
   31384    30329    30350 1
   31385    30330    30331 1
   31386    30330    30341 1
   31387    30330    30351 1
   31388    30331    30332 1
   31389    30331    30352 1
   31390    30331    30353 1
   31391    30332    30333 1
   31392    30332    30354 1
   31393    30332    30355 1
   31394    30333    30334 1
   31395    30333    30356 1
   31396    30333    30357 1
   31397    30334    30335 1
   31398    30334    30358 1
   31399    30334    30359 1
   31400    30335    30336 1
   31401    30335    30360 1
   31402    30335    30361 1
   31403    30336    30337 1
   31404    30336    30362 1
   31405    30336    30363 1
   31406    30337    30338 1
   31407    30337    30364 1
   31408    30337    30365 1
   31409    30338    30339 1
   31410    30338    30366 1
   31411    30338    30367 1
   31412    30339    30340 1
   31413    30339    30368 1
   31414    30339    30369 1
   31415    30340    30370 1
   31416    30340    30371 1
   31417    30340    30372 1
   31418    30341    30342 1
   31419    30341    30373 1
   31420    30341    30374 1
   31421    30342    30343 1
   31422    30342    30375 1
   31423    30342    30376 1
   31424    30343    30344 1
   31425    30343    30377 1
   31426    30343    30378 1
   31427    30344    30345 1
   31428    30344    30379 1
   31429    30344    30380 1
   31430    30345    30346 1
   31431    30345    30381 1
   31432    30345    30382 1
   31433    30346    30347 1
   31434    30346    30383 1
   31435    30346    30384 1
   31436    30347    30348 1
   31437    30347    30385 1
   31438    30347    30386 1
   31439    30348    30387 1
   31440    30348    30388 1
   31441    30348    30389 1
   31442    30390    30391 1
   31443    30390    30410 1
   31444    30390    30411 1
   31445    30391    30392 1
   31446    30391    30402 1
   31447    30391    30412 1
   31448    30392    30393 1
   31449    30392    30413 1
   31450    30392    30414 1
   31451    30393    30394 1
   31452    30393    30415 1
   31453    30393    30416 1
   31454    30394    30395 1
   31455    30394    30417 1
   31456    30394    30418 1
   31457    30395    30396 1
   31458    30395    30419 1
   31459    30395    30420 1
   31460    30396    30397 1
   31461    30396    30421 1
   31462    30396    30422 1
   31463    30397    30398 1
   31464    30397    30423 1
   31465    30397    30424 1
   31466    30398    30399 1
   31467    30398    30425 1
   31468    30398    30426 1
   31469    30399    30400 1
   31470    30399    30427 1
   31471    30399    30428 1
   31472    30400    30401 1
   31473    30400    30429 1
   31474    30400    30430 1
   31475    30401    30431 1
   31476    30401    30432 1
   31477    30401    30433 1
   31478    30402    30403 1
   31479    30402    30434 1
   31480    30402    30435 1
   31481    30403    30404 1
   31482    30403    30436 1
   31483    30403    30437 1
   31484    30404    30405 1
   31485    30404    30438 1
   31486    30404    30439 1
   31487    30405    30406 1
   31488    30405    30440 1
   31489    30405    30441 1
   31490    30406    30407 1
   31491    30406    30442 1
   31492    30406    30443 1
   31493    30407    30408 1
   31494    30407    30444 1
   31495    30407    30445 1
   31496    30408    30409 1
   31497    30408    30446 1
   31498    30408    30447 1
   31499    30409    30448 1
   31500    30409    30449 1
   31501    30409    30450 1
   31502    30451    30452 1
   31503    30451    30458 1
   31504    30451    30474 1
   31505    30451    30535 1
   31506    30452    30453 1
   31507    30452    30456 1
   31508    30453    30454 1
   31509    30453    30457 1
   31510    30454    30455 1
   31511    30455    30456 1
   31512    30456    30462 1
   31513    30457    30458 1
   31514    30457    30461 1
   31515    30458    30459 1
   31516    30459    30460 1
   31517    30459    30463 1
   31518    30460    30461 1
   31519    30460    30466 1
   31520    30464    30465 1
   31521    30464    30472 1
   31522    30465    30466 1
   31523    30465    30473 1
   31524    30466    30467 1
   31525    30467    30468 1
   31526    30467    30471 1
   31527    30468    30469 1
   31528    30469    30470 1
   31529    30470    30471 1
   31530    30471    30472 1
   31531    30472    30600 1
   31532    30474    30475 1
   31533    30474    30494 1
   31534    30474    30495 1
   31535    30475    30476 1
   31536    30475    30486 1
   31537    30475    30496 1
   31538    30476    30477 1
   31539    30476    30497 1
   31540    30476    30498 1
   31541    30477    30478 1
   31542    30477    30499 1
   31543    30477    30500 1
   31544    30478    30479 1
   31545    30478    30501 1
   31546    30478    30502 1
   31547    30479    30480 1
   31548    30479    30503 1
   31549    30479    30504 1
   31550    30480    30481 1
   31551    30480    30505 1
   31552    30480    30506 1
   31553    30481    30482 1
   31554    30481    30507 1
   31555    30481    30508 1
   31556    30482    30483 1
   31557    30482    30509 1
   31558    30482    30510 1
   31559    30483    30484 1
   31560    30483    30511 1
   31561    30483    30512 1
   31562    30484    30485 1
   31563    30484    30513 1
   31564    30484    30514 1
   31565    30485    30515 1
   31566    30485    30516 1
   31567    30485    30517 1
   31568    30486    30487 1
   31569    30486    30518 1
   31570    30486    30519 1
   31571    30487    30488 1
   31572    30487    30520 1
   31573    30487    30521 1
   31574    30488    30489 1
   31575    30488    30522 1
   31576    30488    30523 1
   31577    30489    30490 1
   31578    30489    30524 1
   31579    30489    30525 1
   31580    30490    30491 1
   31581    30490    30526 1
   31582    30490    30527 1
   31583    30491    30492 1
   31584    30491    30528 1
   31585    30491    30529 1
   31586    30492    30493 1
   31587    30492    30530 1
   31588    30492    30531 1
   31589    30493    30532 1
   31590    30493    30533 1
   31591    30493    30534 1
   31592    30535    30536 1
   31593    30535    30555 1
   31594    30535    30556 1
   31595    30536    30537 1
   31596    30536    30547 1
   31597    30536    30557 1
   31598    30537    30538 1
   31599    30537    30558 1
   31600    30537    30559 1
   31601    30538    30539 1
   31602    30538    30560 1
   31603    30538    30561 1
   31604    30539    30540 1
   31605    30539    30562 1
   31606    30539    30563 1
   31607    30540    30541 1
   31608    30540    30564 1
   31609    30540    30565 1
   31610    30541    30542 1
   31611    30541    30566 1
   31612    30541    30567 1
   31613    30542    30543 1
   31614    30542    30568 1
   31615    30542    30569 1
   31616    30543    30544 1
   31617    30543    30570 1
   31618    30543    30571 1
   31619    30544    30545 1
   31620    30544    30572 1
   31621    30544    30573 1
   31622    30545    30546 1
   31623    30545    30574 1
   31624    30545    30575 1
   31625    30546    30576 1
   31626    30546    30577 1
   31627    30546    30578 1
   31628    30547    30548 1
   31629    30547    30579 1
   31630    30547    30580 1
   31631    30548    30549 1
   31632    30548    30581 1
   31633    30548    30582 1
   31634    30549    30550 1
   31635    30549    30583 1
   31636    30549    30584 1
   31637    30550    30551 1
   31638    30550    30585 1
   31639    30550    30586 1
   31640    30551    30552 1
   31641    30551    30587 1
   31642    30551    30588 1
   31643    30552    30553 1
   31644    30552    30589 1
   31645    30552    30590 1
   31646    30553    30554 1
   31647    30553    30591 1
   31648    30553    30592 1
   31649    30554    30593 1
   31650    30554    30594 1
   31651    30554    30595 1
   31652    30596    30597 1
   31653    30596    30603 1
   31654    30596    30619 1
   31655    30596    30680 1
   31656    30597    30598 1
   31657    30597    30601 1
   31658    30598    30599 1
   31659    30598    30602 1
   31660    30599    30600 1
   31661    30600    30601 1
   31662    30601    30607 1
   31663    30602    30603 1
   31664    30602    30606 1
   31665    30603    30604 1
   31666    30604    30605 1
   31667    30604    30608 1
   31668    30605    30606 1
   31669    30605    30611 1
   31670    30609    30610 1
   31671    30609    30617 1
   31672    30610    30611 1
   31673    30610    30618 1
   31674    30611    30612 1
   31675    30612    30613 1
   31676    30612    30616 1
   31677    30613    30614 1
   31678    30614    30615 1
   31679    30615    30616 1
   31680    30616    30617 1
   31681    30617    30745 1
   31682    30619    30620 1
   31683    30619    30639 1
   31684    30619    30640 1
   31685    30620    30621 1
   31686    30620    30631 1
   31687    30620    30641 1
   31688    30621    30622 1
   31689    30621    30642 1
   31690    30621    30643 1
   31691    30622    30623 1
   31692    30622    30644 1
   31693    30622    30645 1
   31694    30623    30624 1
   31695    30623    30646 1
   31696    30623    30647 1
   31697    30624    30625 1
   31698    30624    30648 1
   31699    30624    30649 1
   31700    30625    30626 1
   31701    30625    30650 1
   31702    30625    30651 1
   31703    30626    30627 1
   31704    30626    30652 1
   31705    30626    30653 1
   31706    30627    30628 1
   31707    30627    30654 1
   31708    30627    30655 1
   31709    30628    30629 1
   31710    30628    30656 1
   31711    30628    30657 1
   31712    30629    30630 1
   31713    30629    30658 1
   31714    30629    30659 1
   31715    30630    30660 1
   31716    30630    30661 1
   31717    30630    30662 1
   31718    30631    30632 1
   31719    30631    30663 1
   31720    30631    30664 1
   31721    30632    30633 1
   31722    30632    30665 1
   31723    30632    30666 1
   31724    30633    30634 1
   31725    30633    30667 1
   31726    30633    30668 1
   31727    30634    30635 1
   31728    30634    30669 1
   31729    30634    30670 1
   31730    30635    30636 1
   31731    30635    30671 1
   31732    30635    30672 1
   31733    30636    30637 1
   31734    30636    30673 1
   31735    30636    30674 1
   31736    30637    30638 1
   31737    30637    30675 1
   31738    30637    30676 1
   31739    30638    30677 1
   31740    30638    30678 1
   31741    30638    30679 1
   31742    30680    30681 1
   31743    30680    30700 1
   31744    30680    30701 1
   31745    30681    30682 1
   31746    30681    30692 1
   31747    30681    30702 1
   31748    30682    30683 1
   31749    30682    30703 1
   31750    30682    30704 1
   31751    30683    30684 1
   31752    30683    30705 1
   31753    30683    30706 1
   31754    30684    30685 1
   31755    30684    30707 1
   31756    30684    30708 1
   31757    30685    30686 1
   31758    30685    30709 1
   31759    30685    30710 1
   31760    30686    30687 1
   31761    30686    30711 1
   31762    30686    30712 1
   31763    30687    30688 1
   31764    30687    30713 1
   31765    30687    30714 1
   31766    30688    30689 1
   31767    30688    30715 1
   31768    30688    30716 1
   31769    30689    30690 1
   31770    30689    30717 1
   31771    30689    30718 1
   31772    30690    30691 1
   31773    30690    30719 1
   31774    30690    30720 1
   31775    30691    30721 1
   31776    30691    30722 1
   31777    30691    30723 1
   31778    30692    30693 1
   31779    30692    30724 1
   31780    30692    30725 1
   31781    30693    30694 1
   31782    30693    30726 1
   31783    30693    30727 1
   31784    30694    30695 1
   31785    30694    30728 1
   31786    30694    30729 1
   31787    30695    30696 1
   31788    30695    30730 1
   31789    30695    30731 1
   31790    30696    30697 1
   31791    30696    30732 1
   31792    30696    30733 1
   31793    30697    30698 1
   31794    30697    30734 1
   31795    30697    30735 1
   31796    30698    30699 1
   31797    30698    30736 1
   31798    30698    30737 1
   31799    30699    30738 1
   31800    30699    30739 1
   31801    30699    30740 1
   31802    30741    30742 1
   31803    30741    30748 1
   31804    30741    30764 1
   31805    30741    30825 1
   31806    30742    30743 1
   31807    30742    30746 1
   31808    30743    30744 1
   31809    30743    30747 1
   31810    30744    30745 1
   31811    30745    30746 1
   31812    30746    30752 1
   31813    30747    30748 1
   31814    30747    30751 1
   31815    30748    30749 1
   31816    30749    30750 1
   31817    30749    30753 1
   31818    30750    30751 1
   31819    30750    30756 1
   31820    30754    30755 1
   31821    30754    30762 1
   31822    30755    30756 1
   31823    30755    30763 1
   31824    30756    30757 1
   31825    30757    30758 1
   31826    30757    30761 1
   31827    30758    30759 1
   31828    30759    30760 1
   31829    30760    30761 1
   31830    30761    30762 1
   31831    30762    30890 1
   31832    30764    30765 1
   31833    30764    30784 1
   31834    30764    30785 1
   31835    30765    30766 1
   31836    30765    30776 1
   31837    30765    30786 1
   31838    30766    30767 1
   31839    30766    30787 1
   31840    30766    30788 1
   31841    30767    30768 1
   31842    30767    30789 1
   31843    30767    30790 1
   31844    30768    30769 1
   31845    30768    30791 1
   31846    30768    30792 1
   31847    30769    30770 1
   31848    30769    30793 1
   31849    30769    30794 1
   31850    30770    30771 1
   31851    30770    30795 1
   31852    30770    30796 1
   31853    30771    30772 1
   31854    30771    30797 1
   31855    30771    30798 1
   31856    30772    30773 1
   31857    30772    30799 1
   31858    30772    30800 1
   31859    30773    30774 1
   31860    30773    30801 1
   31861    30773    30802 1
   31862    30774    30775 1
   31863    30774    30803 1
   31864    30774    30804 1
   31865    30775    30805 1
   31866    30775    30806 1
   31867    30775    30807 1
   31868    30776    30777 1
   31869    30776    30808 1
   31870    30776    30809 1
   31871    30777    30778 1
   31872    30777    30810 1
   31873    30777    30811 1
   31874    30778    30779 1
   31875    30778    30812 1
   31876    30778    30813 1
   31877    30779    30780 1
   31878    30779    30814 1
   31879    30779    30815 1
   31880    30780    30781 1
   31881    30780    30816 1
   31882    30780    30817 1
   31883    30781    30782 1
   31884    30781    30818 1
   31885    30781    30819 1
   31886    30782    30783 1
   31887    30782    30820 1
   31888    30782    30821 1
   31889    30783    30822 1
   31890    30783    30823 1
   31891    30783    30824 1
   31892    30825    30826 1
   31893    30825    30845 1
   31894    30825    30846 1
   31895    30826    30827 1
   31896    30826    30837 1
   31897    30826    30847 1
   31898    30827    30828 1
   31899    30827    30848 1
   31900    30827    30849 1
   31901    30828    30829 1
   31902    30828    30850 1
   31903    30828    30851 1
   31904    30829    30830 1
   31905    30829    30852 1
   31906    30829    30853 1
   31907    30830    30831 1
   31908    30830    30854 1
   31909    30830    30855 1
   31910    30831    30832 1
   31911    30831    30856 1
   31912    30831    30857 1
   31913    30832    30833 1
   31914    30832    30858 1
   31915    30832    30859 1
   31916    30833    30834 1
   31917    30833    30860 1
   31918    30833    30861 1
   31919    30834    30835 1
   31920    30834    30862 1
   31921    30834    30863 1
   31922    30835    30836 1
   31923    30835    30864 1
   31924    30835    30865 1
   31925    30836    30866 1
   31926    30836    30867 1
   31927    30836    30868 1
   31928    30837    30838 1
   31929    30837    30869 1
   31930    30837    30870 1
   31931    30838    30839 1
   31932    30838    30871 1
   31933    30838    30872 1
   31934    30839    30840 1
   31935    30839    30873 1
   31936    30839    30874 1
   31937    30840    30841 1
   31938    30840    30875 1
   31939    30840    30876 1
   31940    30841    30842 1
   31941    30841    30877 1
   31942    30841    30878 1
   31943    30842    30843 1
   31944    30842    30879 1
   31945    30842    30880 1
   31946    30843    30844 1
   31947    30843    30881 1
   31948    30843    30882 1
   31949    30844    30883 1
   31950    30844    30884 1
   31951    30844    30885 1
   31952    30886    30887 1
   31953    30886    30893 1
   31954    30886    30909 1
   31955    30886    30970 1
   31956    30887    30888 1
   31957    30887    30891 1
   31958    30888    30889 1
   31959    30888    30892 1
   31960    30889    30890 1
   31961    30890    30891 1
   31962    30891    30897 1
   31963    30892    30893 1
   31964    30892    30896 1
   31965    30893    30894 1
   31966    30894    30895 1
   31967    30894    30898 1
   31968    30895    30896 1
   31969    30895    30901 1
   31970    30899    30900 1
   31971    30899    30907 1
   31972    30900    30901 1
   31973    30900    30908 1
   31974    30901    30902 1
   31975    30902    30903 1
   31976    30902    30906 1
   31977    30903    30904 1
   31978    30904    30905 1
   31979    30905    30906 1
   31980    30906    30907 1
   31981    30907    31035 1
   31982    30909    30910 1
   31983    30909    30929 1
   31984    30909    30930 1
   31985    30910    30911 1
   31986    30910    30921 1
   31987    30910    30931 1
   31988    30911    30912 1
   31989    30911    30932 1
   31990    30911    30933 1
   31991    30912    30913 1
   31992    30912    30934 1
   31993    30912    30935 1
   31994    30913    30914 1
   31995    30913    30936 1
   31996    30913    30937 1
   31997    30914    30915 1
   31998    30914    30938 1
   31999    30914    30939 1
   32000    30915    30916 1
   32001    30915    30940 1
   32002    30915    30941 1
   32003    30916    30917 1
   32004    30916    30942 1
   32005    30916    30943 1
   32006    30917    30918 1
   32007    30917    30944 1
   32008    30917    30945 1
   32009    30918    30919 1
   32010    30918    30946 1
   32011    30918    30947 1
   32012    30919    30920 1
   32013    30919    30948 1
   32014    30919    30949 1
   32015    30920    30950 1
   32016    30920    30951 1
   32017    30920    30952 1
   32018    30921    30922 1
   32019    30921    30953 1
   32020    30921    30954 1
   32021    30922    30923 1
   32022    30922    30955 1
   32023    30922    30956 1
   32024    30923    30924 1
   32025    30923    30957 1
   32026    30923    30958 1
   32027    30924    30925 1
   32028    30924    30959 1
   32029    30924    30960 1
   32030    30925    30926 1
   32031    30925    30961 1
   32032    30925    30962 1
   32033    30926    30927 1
   32034    30926    30963 1
   32035    30926    30964 1
   32036    30927    30928 1
   32037    30927    30965 1
   32038    30927    30966 1
   32039    30928    30967 1
   32040    30928    30968 1
   32041    30928    30969 1
   32042    30970    30971 1
   32043    30970    30990 1
   32044    30970    30991 1
   32045    30971    30972 1
   32046    30971    30982 1
   32047    30971    30992 1
   32048    30972    30973 1
   32049    30972    30993 1
   32050    30972    30994 1
   32051    30973    30974 1
   32052    30973    30995 1
   32053    30973    30996 1
   32054    30974    30975 1
   32055    30974    30997 1
   32056    30974    30998 1
   32057    30975    30976 1
   32058    30975    30999 1
   32059    30975    31000 1
   32060    30976    30977 1
   32061    30976    31001 1
   32062    30976    31002 1
   32063    30977    30978 1
   32064    30977    31003 1
   32065    30977    31004 1
   32066    30978    30979 1
   32067    30978    31005 1
   32068    30978    31006 1
   32069    30979    30980 1
   32070    30979    31007 1
   32071    30979    31008 1
   32072    30980    30981 1
   32073    30980    31009 1
   32074    30980    31010 1
   32075    30981    31011 1
   32076    30981    31012 1
   32077    30981    31013 1
   32078    30982    30983 1
   32079    30982    31014 1
   32080    30982    31015 1
   32081    30983    30984 1
   32082    30983    31016 1
   32083    30983    31017 1
   32084    30984    30985 1
   32085    30984    31018 1
   32086    30984    31019 1
   32087    30985    30986 1
   32088    30985    31020 1
   32089    30985    31021 1
   32090    30986    30987 1
   32091    30986    31022 1
   32092    30986    31023 1
   32093    30987    30988 1
   32094    30987    31024 1
   32095    30987    31025 1
   32096    30988    30989 1
   32097    30988    31026 1
   32098    30988    31027 1
   32099    30989    31028 1
   32100    30989    31029 1
   32101    30989    31030 1
   32102    31031    31032 1
   32103    31031    31038 1
   32104    31031    31054 1
   32105    31031    31115 1
   32106    31032    31033 1
   32107    31032    31036 1
   32108    31033    31034 1
   32109    31033    31037 1
   32110    31034    31035 1
   32111    31035    31036 1
   32112    31036    31042 1
   32113    31037    31038 1
   32114    31037    31041 1
   32115    31038    31039 1
   32116    31039    31040 1
   32117    31039    31043 1
   32118    31040    31041 1
   32119    31040    31046 1
   32120    31044    31045 1
   32121    31044    31052 1
   32122    31045    31046 1
   32123    31045    31053 1
   32124    31046    31047 1
   32125    31047    31048 1
   32126    31047    31051 1
   32127    31048    31049 1
   32128    31049    31050 1
   32129    31050    31051 1
   32130    31051    31052 1
   32131    31052    31180 1
   32132    31054    31055 1
   32133    31054    31074 1
   32134    31054    31075 1
   32135    31055    31056 1
   32136    31055    31066 1
   32137    31055    31076 1
   32138    31056    31057 1
   32139    31056    31077 1
   32140    31056    31078 1
   32141    31057    31058 1
   32142    31057    31079 1
   32143    31057    31080 1
   32144    31058    31059 1
   32145    31058    31081 1
   32146    31058    31082 1
   32147    31059    31060 1
   32148    31059    31083 1
   32149    31059    31084 1
   32150    31060    31061 1
   32151    31060    31085 1
   32152    31060    31086 1
   32153    31061    31062 1
   32154    31061    31087 1
   32155    31061    31088 1
   32156    31062    31063 1
   32157    31062    31089 1
   32158    31062    31090 1
   32159    31063    31064 1
   32160    31063    31091 1
   32161    31063    31092 1
   32162    31064    31065 1
   32163    31064    31093 1
   32164    31064    31094 1
   32165    31065    31095 1
   32166    31065    31096 1
   32167    31065    31097 1
   32168    31066    31067 1
   32169    31066    31098 1
   32170    31066    31099 1
   32171    31067    31068 1
   32172    31067    31100 1
   32173    31067    31101 1
   32174    31068    31069 1
   32175    31068    31102 1
   32176    31068    31103 1
   32177    31069    31070 1
   32178    31069    31104 1
   32179    31069    31105 1
   32180    31070    31071 1
   32181    31070    31106 1
   32182    31070    31107 1
   32183    31071    31072 1
   32184    31071    31108 1
   32185    31071    31109 1
   32186    31072    31073 1
   32187    31072    31110 1
   32188    31072    31111 1
   32189    31073    31112 1
   32190    31073    31113 1
   32191    31073    31114 1
   32192    31115    31116 1
   32193    31115    31135 1
   32194    31115    31136 1
   32195    31116    31117 1
   32196    31116    31127 1
   32197    31116    31137 1
   32198    31117    31118 1
   32199    31117    31138 1
   32200    31117    31139 1
   32201    31118    31119 1
   32202    31118    31140 1
   32203    31118    31141 1
   32204    31119    31120 1
   32205    31119    31142 1
   32206    31119    31143 1
   32207    31120    31121 1
   32208    31120    31144 1
   32209    31120    31145 1
   32210    31121    31122 1
   32211    31121    31146 1
   32212    31121    31147 1
   32213    31122    31123 1
   32214    31122    31148 1
   32215    31122    31149 1
   32216    31123    31124 1
   32217    31123    31150 1
   32218    31123    31151 1
   32219    31124    31125 1
   32220    31124    31152 1
   32221    31124    31153 1
   32222    31125    31126 1
   32223    31125    31154 1
   32224    31125    31155 1
   32225    31126    31156 1
   32226    31126    31157 1
   32227    31126    31158 1
   32228    31127    31128 1
   32229    31127    31159 1
   32230    31127    31160 1
   32231    31128    31129 1
   32232    31128    31161 1
   32233    31128    31162 1
   32234    31129    31130 1
   32235    31129    31163 1
   32236    31129    31164 1
   32237    31130    31131 1
   32238    31130    31165 1
   32239    31130    31166 1
   32240    31131    31132 1
   32241    31131    31167 1
   32242    31131    31168 1
   32243    31132    31133 1
   32244    31132    31169 1
   32245    31132    31170 1
   32246    31133    31134 1
   32247    31133    31171 1
   32248    31133    31172 1
   32249    31134    31173 1
   32250    31134    31174 1
   32251    31134    31175 1
   32252    31176    31177 1
   32253    31176    31183 1
   32254    31176    31199 1
   32255    31176    31260 1
   32256    31177    31178 1
   32257    31177    31181 1
   32258    31178    31179 1
   32259    31178    31182 1
   32260    31179    31180 1
   32261    31180    31181 1
   32262    31181    31187 1
   32263    31182    31183 1
   32264    31182    31186 1
   32265    31183    31184 1
   32266    31184    31185 1
   32267    31184    31188 1
   32268    31185    31186 1
   32269    31185    31191 1
   32270    31189    31190 1
   32271    31189    31197 1
   32272    31190    31191 1
   32273    31190    31198 1
   32274    31191    31192 1
   32275    31192    31193 1
   32276    31192    31196 1
   32277    31193    31194 1
   32278    31194    31195 1
   32279    31195    31196 1
   32280    31196    31197 1
   32281    31197    31325 1
   32282    31199    31200 1
   32283    31199    31219 1
   32284    31199    31220 1
   32285    31200    31201 1
   32286    31200    31211 1
   32287    31200    31221 1
   32288    31201    31202 1
   32289    31201    31222 1
   32290    31201    31223 1
   32291    31202    31203 1
   32292    31202    31224 1
   32293    31202    31225 1
   32294    31203    31204 1
   32295    31203    31226 1
   32296    31203    31227 1
   32297    31204    31205 1
   32298    31204    31228 1
   32299    31204    31229 1
   32300    31205    31206 1
   32301    31205    31230 1
   32302    31205    31231 1
   32303    31206    31207 1
   32304    31206    31232 1
   32305    31206    31233 1
   32306    31207    31208 1
   32307    31207    31234 1
   32308    31207    31235 1
   32309    31208    31209 1
   32310    31208    31236 1
   32311    31208    31237 1
   32312    31209    31210 1
   32313    31209    31238 1
   32314    31209    31239 1
   32315    31210    31240 1
   32316    31210    31241 1
   32317    31210    31242 1
   32318    31211    31212 1
   32319    31211    31243 1
   32320    31211    31244 1
   32321    31212    31213 1
   32322    31212    31245 1
   32323    31212    31246 1
   32324    31213    31214 1
   32325    31213    31247 1
   32326    31213    31248 1
   32327    31214    31215 1
   32328    31214    31249 1
   32329    31214    31250 1
   32330    31215    31216 1
   32331    31215    31251 1
   32332    31215    31252 1
   32333    31216    31217 1
   32334    31216    31253 1
   32335    31216    31254 1
   32336    31217    31218 1
   32337    31217    31255 1
   32338    31217    31256 1
   32339    31218    31257 1
   32340    31218    31258 1
   32341    31218    31259 1
   32342    31260    31261 1
   32343    31260    31280 1
   32344    31260    31281 1
   32345    31261    31262 1
   32346    31261    31272 1
   32347    31261    31282 1
   32348    31262    31263 1
   32349    31262    31283 1
   32350    31262    31284 1
   32351    31263    31264 1
   32352    31263    31285 1
   32353    31263    31286 1
   32354    31264    31265 1
   32355    31264    31287 1
   32356    31264    31288 1
   32357    31265    31266 1
   32358    31265    31289 1
   32359    31265    31290 1
   32360    31266    31267 1
   32361    31266    31291 1
   32362    31266    31292 1
   32363    31267    31268 1
   32364    31267    31293 1
   32365    31267    31294 1
   32366    31268    31269 1
   32367    31268    31295 1
   32368    31268    31296 1
   32369    31269    31270 1
   32370    31269    31297 1
   32371    31269    31298 1
   32372    31270    31271 1
   32373    31270    31299 1
   32374    31270    31300 1
   32375    31271    31301 1
   32376    31271    31302 1
   32377    31271    31303 1
   32378    31272    31273 1
   32379    31272    31304 1
   32380    31272    31305 1
   32381    31273    31274 1
   32382    31273    31306 1
   32383    31273    31307 1
   32384    31274    31275 1
   32385    31274    31308 1
   32386    31274    31309 1
   32387    31275    31276 1
   32388    31275    31310 1
   32389    31275    31311 1
   32390    31276    31277 1
   32391    31276    31312 1
   32392    31276    31313 1
   32393    31277    31278 1
   32394    31277    31314 1
   32395    31277    31315 1
   32396    31278    31279 1
   32397    31278    31316 1
   32398    31278    31317 1
   32399    31279    31318 1
   32400    31279    31319 1
   32401    31279    31320 1
   32402    31321    31322 1
   32403    31321    31328 1
   32404    31321    31344 1
   32405    31321    31405 1
   32406    31322    31323 1
   32407    31322    31326 1
   32408    31323    31324 1
   32409    31323    31327 1
   32410    31324    31325 1
   32411    31325    31326 1
   32412    31326    31332 1
   32413    31327    31328 1
   32414    31327    31331 1
   32415    31328    31329 1
   32416    31329    31330 1
   32417    31329    31333 1
   32418    31330    31331 1
   32419    31330    31336 1
   32420    31334    31335 1
   32421    31334    31342 1
   32422    31335    31336 1
   32423    31335    31343 1
   32424    31336    31337 1
   32425    31337    31338 1
   32426    31337    31341 1
   32427    31338    31339 1
   32428    31339    31340 1
   32429    31340    31341 1
   32430    31341    31342 1
   32431    31342    31470 1
   32432    31344    31345 1
   32433    31344    31364 1
   32434    31344    31365 1
   32435    31345    31346 1
   32436    31345    31356 1
   32437    31345    31366 1
   32438    31346    31347 1
   32439    31346    31367 1
   32440    31346    31368 1
   32441    31347    31348 1
   32442    31347    31369 1
   32443    31347    31370 1
   32444    31348    31349 1
   32445    31348    31371 1
   32446    31348    31372 1
   32447    31349    31350 1
   32448    31349    31373 1
   32449    31349    31374 1
   32450    31350    31351 1
   32451    31350    31375 1
   32452    31350    31376 1
   32453    31351    31352 1
   32454    31351    31377 1
   32455    31351    31378 1
   32456    31352    31353 1
   32457    31352    31379 1
   32458    31352    31380 1
   32459    31353    31354 1
   32460    31353    31381 1
   32461    31353    31382 1
   32462    31354    31355 1
   32463    31354    31383 1
   32464    31354    31384 1
   32465    31355    31385 1
   32466    31355    31386 1
   32467    31355    31387 1
   32468    31356    31357 1
   32469    31356    31388 1
   32470    31356    31389 1
   32471    31357    31358 1
   32472    31357    31390 1
   32473    31357    31391 1
   32474    31358    31359 1
   32475    31358    31392 1
   32476    31358    31393 1
   32477    31359    31360 1
   32478    31359    31394 1
   32479    31359    31395 1
   32480    31360    31361 1
   32481    31360    31396 1
   32482    31360    31397 1
   32483    31361    31362 1
   32484    31361    31398 1
   32485    31361    31399 1
   32486    31362    31363 1
   32487    31362    31400 1
   32488    31362    31401 1
   32489    31363    31402 1
   32490    31363    31403 1
   32491    31363    31404 1
   32492    31405    31406 1
   32493    31405    31425 1
   32494    31405    31426 1
   32495    31406    31407 1
   32496    31406    31417 1
   32497    31406    31427 1
   32498    31407    31408 1
   32499    31407    31428 1
   32500    31407    31429 1
   32501    31408    31409 1
   32502    31408    31430 1
   32503    31408    31431 1
   32504    31409    31410 1
   32505    31409    31432 1
   32506    31409    31433 1
   32507    31410    31411 1
   32508    31410    31434 1
   32509    31410    31435 1
   32510    31411    31412 1
   32511    31411    31436 1
   32512    31411    31437 1
   32513    31412    31413 1
   32514    31412    31438 1
   32515    31412    31439 1
   32516    31413    31414 1
   32517    31413    31440 1
   32518    31413    31441 1
   32519    31414    31415 1
   32520    31414    31442 1
   32521    31414    31443 1
   32522    31415    31416 1
   32523    31415    31444 1
   32524    31415    31445 1
   32525    31416    31446 1
   32526    31416    31447 1
   32527    31416    31448 1
   32528    31417    31418 1
   32529    31417    31449 1
   32530    31417    31450 1
   32531    31418    31419 1
   32532    31418    31451 1
   32533    31418    31452 1
   32534    31419    31420 1
   32535    31419    31453 1
   32536    31419    31454 1
   32537    31420    31421 1
   32538    31420    31455 1
   32539    31420    31456 1
   32540    31421    31422 1
   32541    31421    31457 1
   32542    31421    31458 1
   32543    31422    31423 1
   32544    31422    31459 1
   32545    31422    31460 1
   32546    31423    31424 1
   32547    31423    31461 1
   32548    31423    31462 1
   32549    31424    31463 1
   32550    31424    31464 1
   32551    31424    31465 1
   32552    31466    31467 1
   32553    31466    31473 1
   32554    31466    31489 1
   32555    31466    31550 1
   32556    31467    31468 1
   32557    31467    31471 1
   32558    31468    31469 1
   32559    31468    31472 1
   32560    31469    31470 1
   32561    31470    31471 1
   32562    31471    31477 1
   32563    31472    31473 1
   32564    31472    31476 1
   32565    31473    31474 1
   32566    31474    31475 1
   32567    31474    31478 1
   32568    31475    31476 1
   32569    31475    31481 1
   32570    31479    31480 1
   32571    31479    31487 1
   32572    31480    31481 1
   32573    31480    31488 1
   32574    31481    31482 1
   32575    31482    31483 1
   32576    31482    31486 1
   32577    31483    31484 1
   32578    31484    31485 1
   32579    31485    31486 1
   32580    31486    31487 1
   32581    31487    31615 1
   32582    31489    31490 1
   32583    31489    31509 1
   32584    31489    31510 1
   32585    31490    31491 1
   32586    31490    31501 1
   32587    31490    31511 1
   32588    31491    31492 1
   32589    31491    31512 1
   32590    31491    31513 1
   32591    31492    31493 1
   32592    31492    31514 1
   32593    31492    31515 1
   32594    31493    31494 1
   32595    31493    31516 1
   32596    31493    31517 1
   32597    31494    31495 1
   32598    31494    31518 1
   32599    31494    31519 1
   32600    31495    31496 1
   32601    31495    31520 1
   32602    31495    31521 1
   32603    31496    31497 1
   32604    31496    31522 1
   32605    31496    31523 1
   32606    31497    31498 1
   32607    31497    31524 1
   32608    31497    31525 1
   32609    31498    31499 1
   32610    31498    31526 1
   32611    31498    31527 1
   32612    31499    31500 1
   32613    31499    31528 1
   32614    31499    31529 1
   32615    31500    31530 1
   32616    31500    31531 1
   32617    31500    31532 1
   32618    31501    31502 1
   32619    31501    31533 1
   32620    31501    31534 1
   32621    31502    31503 1
   32622    31502    31535 1
   32623    31502    31536 1
   32624    31503    31504 1
   32625    31503    31537 1
   32626    31503    31538 1
   32627    31504    31505 1
   32628    31504    31539 1
   32629    31504    31540 1
   32630    31505    31506 1
   32631    31505    31541 1
   32632    31505    31542 1
   32633    31506    31507 1
   32634    31506    31543 1
   32635    31506    31544 1
   32636    31507    31508 1
   32637    31507    31545 1
   32638    31507    31546 1
   32639    31508    31547 1
   32640    31508    31548 1
   32641    31508    31549 1
   32642    31550    31551 1
   32643    31550    31570 1
   32644    31550    31571 1
   32645    31551    31552 1
   32646    31551    31562 1
   32647    31551    31572 1
   32648    31552    31553 1
   32649    31552    31573 1
   32650    31552    31574 1
   32651    31553    31554 1
   32652    31553    31575 1
   32653    31553    31576 1
   32654    31554    31555 1
   32655    31554    31577 1
   32656    31554    31578 1
   32657    31555    31556 1
   32658    31555    31579 1
   32659    31555    31580 1
   32660    31556    31557 1
   32661    31556    31581 1
   32662    31556    31582 1
   32663    31557    31558 1
   32664    31557    31583 1
   32665    31557    31584 1
   32666    31558    31559 1
   32667    31558    31585 1
   32668    31558    31586 1
   32669    31559    31560 1
   32670    31559    31587 1
   32671    31559    31588 1
   32672    31560    31561 1
   32673    31560    31589 1
   32674    31560    31590 1
   32675    31561    31591 1
   32676    31561    31592 1
   32677    31561    31593 1
   32678    31562    31563 1
   32679    31562    31594 1
   32680    31562    31595 1
   32681    31563    31564 1
   32682    31563    31596 1
   32683    31563    31597 1
   32684    31564    31565 1
   32685    31564    31598 1
   32686    31564    31599 1
   32687    31565    31566 1
   32688    31565    31600 1
   32689    31565    31601 1
   32690    31566    31567 1
   32691    31566    31602 1
   32692    31566    31603 1
   32693    31567    31568 1
   32694    31567    31604 1
   32695    31567    31605 1
   32696    31568    31569 1
   32697    31568    31606 1
   32698    31568    31607 1
   32699    31569    31608 1
   32700    31569    31609 1
   32701    31569    31610 1
   32702    31611    31612 1
   32703    31611    31618 1
   32704    31611    31634 1
   32705    31611    31695 1
   32706    31612    31613 1
   32707    31612    31616 1
   32708    31613    31614 1
   32709    31613    31617 1
   32710    31614    31615 1
   32711    31615    31616 1
   32712    31616    31622 1
   32713    31617    31618 1
   32714    31617    31621 1
   32715    31618    31619 1
   32716    31619    31620 1
   32717    31619    31623 1
   32718    31620    31621 1
   32719    31620    31626 1
   32720    31624    31625 1
   32721    31624    31632 1
   32722    31625    31626 1
   32723    31625    31633 1
   32724    31626    31627 1
   32725    31627    31628 1
   32726    31627    31631 1
   32727    31628    31629 1
   32728    31629    31630 1
   32729    31630    31631 1
   32730    31631    31632 1
   32731    31632    31760 1
   32732    31634    31635 1
   32733    31634    31654 1
   32734    31634    31655 1
   32735    31635    31636 1
   32736    31635    31646 1
   32737    31635    31656 1
   32738    31636    31637 1
   32739    31636    31657 1
   32740    31636    31658 1
   32741    31637    31638 1
   32742    31637    31659 1
   32743    31637    31660 1
   32744    31638    31639 1
   32745    31638    31661 1
   32746    31638    31662 1
   32747    31639    31640 1
   32748    31639    31663 1
   32749    31639    31664 1
   32750    31640    31641 1
   32751    31640    31665 1
   32752    31640    31666 1
   32753    31641    31642 1
   32754    31641    31667 1
   32755    31641    31668 1
   32756    31642    31643 1
   32757    31642    31669 1
   32758    31642    31670 1
   32759    31643    31644 1
   32760    31643    31671 1
   32761    31643    31672 1
   32762    31644    31645 1
   32763    31644    31673 1
   32764    31644    31674 1
   32765    31645    31675 1
   32766    31645    31676 1
   32767    31645    31677 1
   32768    31646    31647 1
   32769    31646    31678 1
   32770    31646    31679 1
   32771    31647    31648 1
   32772    31647    31680 1
   32773    31647    31681 1
   32774    31648    31649 1
   32775    31648    31682 1
   32776    31648    31683 1
   32777    31649    31650 1
   32778    31649    31684 1
   32779    31649    31685 1
   32780    31650    31651 1
   32781    31650    31686 1
   32782    31650    31687 1
   32783    31651    31652 1
   32784    31651    31688 1
   32785    31651    31689 1
   32786    31652    31653 1
   32787    31652    31690 1
   32788    31652    31691 1
   32789    31653    31692 1
   32790    31653    31693 1
   32791    31653    31694 1
   32792    31695    31696 1
   32793    31695    31715 1
   32794    31695    31716 1
   32795    31696    31697 1
   32796    31696    31707 1
   32797    31696    31717 1
   32798    31697    31698 1
   32799    31697    31718 1
   32800    31697    31719 1
   32801    31698    31699 1
   32802    31698    31720 1
   32803    31698    31721 1
   32804    31699    31700 1
   32805    31699    31722 1
   32806    31699    31723 1
   32807    31700    31701 1
   32808    31700    31724 1
   32809    31700    31725 1
   32810    31701    31702 1
   32811    31701    31726 1
   32812    31701    31727 1
   32813    31702    31703 1
   32814    31702    31728 1
   32815    31702    31729 1
   32816    31703    31704 1
   32817    31703    31730 1
   32818    31703    31731 1
   32819    31704    31705 1
   32820    31704    31732 1
   32821    31704    31733 1
   32822    31705    31706 1
   32823    31705    31734 1
   32824    31705    31735 1
   32825    31706    31736 1
   32826    31706    31737 1
   32827    31706    31738 1
   32828    31707    31708 1
   32829    31707    31739 1
   32830    31707    31740 1
   32831    31708    31709 1
   32832    31708    31741 1
   32833    31708    31742 1
   32834    31709    31710 1
   32835    31709    31743 1
   32836    31709    31744 1
   32837    31710    31711 1
   32838    31710    31745 1
   32839    31710    31746 1
   32840    31711    31712 1
   32841    31711    31747 1
   32842    31711    31748 1
   32843    31712    31713 1
   32844    31712    31749 1
   32845    31712    31750 1
   32846    31713    31714 1
   32847    31713    31751 1
   32848    31713    31752 1
   32849    31714    31753 1
   32850    31714    31754 1
   32851    31714    31755 1
   32852    31756    31757 1
   32853    31756    31763 1
   32854    31756    31779 1
   32855    31756    31840 1
   32856    31757    31758 1
   32857    31757    31761 1
   32858    31758    31759 1
   32859    31758    31762 1
   32860    31759    31760 1
   32861    31760    31761 1
   32862    31761    31767 1
   32863    31762    31763 1
   32864    31762    31766 1
   32865    31763    31764 1
   32866    31764    31765 1
   32867    31764    31768 1
   32868    31765    31766 1
   32869    31765    31771 1
   32870    31769    31770 1
   32871    31769    31777 1
   32872    31770    31771 1
   32873    31770    31778 1
   32874    31771    31772 1
   32875    31772    31773 1
   32876    31772    31776 1
   32877    31773    31774 1
   32878    31774    31775 1
   32879    31775    31776 1
   32880    31776    31777 1
   32881    31777    31905 1
   32882    31779    31780 1
   32883    31779    31799 1
   32884    31779    31800 1
   32885    31780    31781 1
   32886    31780    31791 1
   32887    31780    31801 1
   32888    31781    31782 1
   32889    31781    31802 1
   32890    31781    31803 1
   32891    31782    31783 1
   32892    31782    31804 1
   32893    31782    31805 1
   32894    31783    31784 1
   32895    31783    31806 1
   32896    31783    31807 1
   32897    31784    31785 1
   32898    31784    31808 1
   32899    31784    31809 1
   32900    31785    31786 1
   32901    31785    31810 1
   32902    31785    31811 1
   32903    31786    31787 1
   32904    31786    31812 1
   32905    31786    31813 1
   32906    31787    31788 1
   32907    31787    31814 1
   32908    31787    31815 1
   32909    31788    31789 1
   32910    31788    31816 1
   32911    31788    31817 1
   32912    31789    31790 1
   32913    31789    31818 1
   32914    31789    31819 1
   32915    31790    31820 1
   32916    31790    31821 1
   32917    31790    31822 1
   32918    31791    31792 1
   32919    31791    31823 1
   32920    31791    31824 1
   32921    31792    31793 1
   32922    31792    31825 1
   32923    31792    31826 1
   32924    31793    31794 1
   32925    31793    31827 1
   32926    31793    31828 1
   32927    31794    31795 1
   32928    31794    31829 1
   32929    31794    31830 1
   32930    31795    31796 1
   32931    31795    31831 1
   32932    31795    31832 1
   32933    31796    31797 1
   32934    31796    31833 1
   32935    31796    31834 1
   32936    31797    31798 1
   32937    31797    31835 1
   32938    31797    31836 1
   32939    31798    31837 1
   32940    31798    31838 1
   32941    31798    31839 1
   32942    31840    31841 1
   32943    31840    31860 1
   32944    31840    31861 1
   32945    31841    31842 1
   32946    31841    31852 1
   32947    31841    31862 1
   32948    31842    31843 1
   32949    31842    31863 1
   32950    31842    31864 1
   32951    31843    31844 1
   32952    31843    31865 1
   32953    31843    31866 1
   32954    31844    31845 1
   32955    31844    31867 1
   32956    31844    31868 1
   32957    31845    31846 1
   32958    31845    31869 1
   32959    31845    31870 1
   32960    31846    31847 1
   32961    31846    31871 1
   32962    31846    31872 1
   32963    31847    31848 1
   32964    31847    31873 1
   32965    31847    31874 1
   32966    31848    31849 1
   32967    31848    31875 1
   32968    31848    31876 1
   32969    31849    31850 1
   32970    31849    31877 1
   32971    31849    31878 1
   32972    31850    31851 1
   32973    31850    31879 1
   32974    31850    31880 1
   32975    31851    31881 1
   32976    31851    31882 1
   32977    31851    31883 1
   32978    31852    31853 1
   32979    31852    31884 1
   32980    31852    31885 1
   32981    31853    31854 1
   32982    31853    31886 1
   32983    31853    31887 1
   32984    31854    31855 1
   32985    31854    31888 1
   32986    31854    31889 1
   32987    31855    31856 1
   32988    31855    31890 1
   32989    31855    31891 1
   32990    31856    31857 1
   32991    31856    31892 1
   32992    31856    31893 1
   32993    31857    31858 1
   32994    31857    31894 1
   32995    31857    31895 1
   32996    31858    31859 1
   32997    31858    31896 1
   32998    31858    31897 1
   32999    31859    31898 1
   33000    31859    31899 1
   33001    31859    31900 1
   33002    31901    31902 1
   33003    31901    31908 1
   33004    31901    31924 1
   33005    31901    31985 1
   33006    31902    31903 1
   33007    31902    31906 1
   33008    31903    31904 1
   33009    31903    31907 1
   33010    31904    31905 1
   33011    31905    31906 1
   33012    31906    31912 1
   33013    31907    31908 1
   33014    31907    31911 1
   33015    31908    31909 1
   33016    31909    31910 1
   33017    31909    31913 1
   33018    31910    31911 1
   33019    31910    31916 1
   33020    31914    31915 1
   33021    31914    31922 1
   33022    31915    31916 1
   33023    31915    31923 1
   33024    31916    31917 1
   33025    31917    31918 1
   33026    31917    31921 1
   33027    31918    31919 1
   33028    31919    31920 1
   33029    31920    31921 1
   33030    31921    31922 1
   33031    31922    32050 1
   33032    31924    31925 1
   33033    31924    31944 1
   33034    31924    31945 1
   33035    31925    31926 1
   33036    31925    31936 1
   33037    31925    31946 1
   33038    31926    31927 1
   33039    31926    31947 1
   33040    31926    31948 1
   33041    31927    31928 1
   33042    31927    31949 1
   33043    31927    31950 1
   33044    31928    31929 1
   33045    31928    31951 1
   33046    31928    31952 1
   33047    31929    31930 1
   33048    31929    31953 1
   33049    31929    31954 1
   33050    31930    31931 1
   33051    31930    31955 1
   33052    31930    31956 1
   33053    31931    31932 1
   33054    31931    31957 1
   33055    31931    31958 1
   33056    31932    31933 1
   33057    31932    31959 1
   33058    31932    31960 1
   33059    31933    31934 1
   33060    31933    31961 1
   33061    31933    31962 1
   33062    31934    31935 1
   33063    31934    31963 1
   33064    31934    31964 1
   33065    31935    31965 1
   33066    31935    31966 1
   33067    31935    31967 1
   33068    31936    31937 1
   33069    31936    31968 1
   33070    31936    31969 1
   33071    31937    31938 1
   33072    31937    31970 1
   33073    31937    31971 1
   33074    31938    31939 1
   33075    31938    31972 1
   33076    31938    31973 1
   33077    31939    31940 1
   33078    31939    31974 1
   33079    31939    31975 1
   33080    31940    31941 1
   33081    31940    31976 1
   33082    31940    31977 1
   33083    31941    31942 1
   33084    31941    31978 1
   33085    31941    31979 1
   33086    31942    31943 1
   33087    31942    31980 1
   33088    31942    31981 1
   33089    31943    31982 1
   33090    31943    31983 1
   33091    31943    31984 1
   33092    31985    31986 1
   33093    31985    32005 1
   33094    31985    32006 1
   33095    31986    31987 1
   33096    31986    31997 1
   33097    31986    32007 1
   33098    31987    31988 1
   33099    31987    32008 1
   33100    31987    32009 1
   33101    31988    31989 1
   33102    31988    32010 1
   33103    31988    32011 1
   33104    31989    31990 1
   33105    31989    32012 1
   33106    31989    32013 1
   33107    31990    31991 1
   33108    31990    32014 1
   33109    31990    32015 1
   33110    31991    31992 1
   33111    31991    32016 1
   33112    31991    32017 1
   33113    31992    31993 1
   33114    31992    32018 1
   33115    31992    32019 1
   33116    31993    31994 1
   33117    31993    32020 1
   33118    31993    32021 1
   33119    31994    31995 1
   33120    31994    32022 1
   33121    31994    32023 1
   33122    31995    31996 1
   33123    31995    32024 1
   33124    31995    32025 1
   33125    31996    32026 1
   33126    31996    32027 1
   33127    31996    32028 1
   33128    31997    31998 1
   33129    31997    32029 1
   33130    31997    32030 1
   33131    31998    31999 1
   33132    31998    32031 1
   33133    31998    32032 1
   33134    31999    32000 1
   33135    31999    32033 1
   33136    31999    32034 1
   33137    32000    32001 1
   33138    32000    32035 1
   33139    32000    32036 1
   33140    32001    32002 1
   33141    32001    32037 1
   33142    32001    32038 1
   33143    32002    32003 1
   33144    32002    32039 1
   33145    32002    32040 1
   33146    32003    32004 1
   33147    32003    32041 1
   33148    32003    32042 1
   33149    32004    32043 1
   33150    32004    32044 1
   33151    32004    32045 1
   33152    32046    32047 1
   33153    32046    32053 1
   33154    32046    32069 1
   33155    32046    32130 1
   33156    32047    32048 1
   33157    32047    32051 1
   33158    32048    32049 1
   33159    32048    32052 1
   33160    32049    32050 1
   33161    32050    32051 1
   33162    32051    32057 1
   33163    32052    32053 1
   33164    32052    32056 1
   33165    32053    32054 1
   33166    32054    32055 1
   33167    32054    32058 1
   33168    32055    32056 1
   33169    32055    32061 1
   33170    32059    32060 1
   33171    32059    32067 1
   33172    32060    32061 1
   33173    32060    32068 1
   33174    32061    32062 1
   33175    32062    32063 1
   33176    32062    32066 1
   33177    32063    32064 1
   33178    32064    32065 1
   33179    32065    32066 1
   33180    32066    32067 1
   33181    32067    32195 1
   33182    32069    32070 1
   33183    32069    32089 1
   33184    32069    32090 1
   33185    32070    32071 1
   33186    32070    32081 1
   33187    32070    32091 1
   33188    32071    32072 1
   33189    32071    32092 1
   33190    32071    32093 1
   33191    32072    32073 1
   33192    32072    32094 1
   33193    32072    32095 1
   33194    32073    32074 1
   33195    32073    32096 1
   33196    32073    32097 1
   33197    32074    32075 1
   33198    32074    32098 1
   33199    32074    32099 1
   33200    32075    32076 1
   33201    32075    32100 1
   33202    32075    32101 1
   33203    32076    32077 1
   33204    32076    32102 1
   33205    32076    32103 1
   33206    32077    32078 1
   33207    32077    32104 1
   33208    32077    32105 1
   33209    32078    32079 1
   33210    32078    32106 1
   33211    32078    32107 1
   33212    32079    32080 1
   33213    32079    32108 1
   33214    32079    32109 1
   33215    32080    32110 1
   33216    32080    32111 1
   33217    32080    32112 1
   33218    32081    32082 1
   33219    32081    32113 1
   33220    32081    32114 1
   33221    32082    32083 1
   33222    32082    32115 1
   33223    32082    32116 1
   33224    32083    32084 1
   33225    32083    32117 1
   33226    32083    32118 1
   33227    32084    32085 1
   33228    32084    32119 1
   33229    32084    32120 1
   33230    32085    32086 1
   33231    32085    32121 1
   33232    32085    32122 1
   33233    32086    32087 1
   33234    32086    32123 1
   33235    32086    32124 1
   33236    32087    32088 1
   33237    32087    32125 1
   33238    32087    32126 1
   33239    32088    32127 1
   33240    32088    32128 1
   33241    32088    32129 1
   33242    32130    32131 1
   33243    32130    32150 1
   33244    32130    32151 1
   33245    32131    32132 1
   33246    32131    32142 1
   33247    32131    32152 1
   33248    32132    32133 1
   33249    32132    32153 1
   33250    32132    32154 1
   33251    32133    32134 1
   33252    32133    32155 1
   33253    32133    32156 1
   33254    32134    32135 1
   33255    32134    32157 1
   33256    32134    32158 1
   33257    32135    32136 1
   33258    32135    32159 1
   33259    32135    32160 1
   33260    32136    32137 1
   33261    32136    32161 1
   33262    32136    32162 1
   33263    32137    32138 1
   33264    32137    32163 1
   33265    32137    32164 1
   33266    32138    32139 1
   33267    32138    32165 1
   33268    32138    32166 1
   33269    32139    32140 1
   33270    32139    32167 1
   33271    32139    32168 1
   33272    32140    32141 1
   33273    32140    32169 1
   33274    32140    32170 1
   33275    32141    32171 1
   33276    32141    32172 1
   33277    32141    32173 1
   33278    32142    32143 1
   33279    32142    32174 1
   33280    32142    32175 1
   33281    32143    32144 1
   33282    32143    32176 1
   33283    32143    32177 1
   33284    32144    32145 1
   33285    32144    32178 1
   33286    32144    32179 1
   33287    32145    32146 1
   33288    32145    32180 1
   33289    32145    32181 1
   33290    32146    32147 1
   33291    32146    32182 1
   33292    32146    32183 1
   33293    32147    32148 1
   33294    32147    32184 1
   33295    32147    32185 1
   33296    32148    32149 1
   33297    32148    32186 1
   33298    32148    32187 1
   33299    32149    32188 1
   33300    32149    32189 1
   33301    32149    32190 1
   33302    32191    32192 1
   33303    32191    32198 1
   33304    32191    32214 1
   33305    32191    32275 1
   33306    32192    32193 1
   33307    32192    32196 1
   33308    32193    32194 1
   33309    32193    32197 1
   33310    32194    32195 1
   33311    32195    32196 1
   33312    32196    32202 1
   33313    32197    32198 1
   33314    32197    32201 1
   33315    32198    32199 1
   33316    32199    32200 1
   33317    32199    32203 1
   33318    32200    32201 1
   33319    32200    32206 1
   33320    32204    32205 1
   33321    32204    32212 1
   33322    32205    32206 1
   33323    32205    32213 1
   33324    32206    32207 1
   33325    32207    32208 1
   33326    32207    32211 1
   33327    32208    32209 1
   33328    32209    32210 1
   33329    32210    32211 1
   33330    32211    32212 1
   33331    32212    32340 1
   33332    32214    32215 1
   33333    32214    32234 1
   33334    32214    32235 1
   33335    32215    32216 1
   33336    32215    32226 1
   33337    32215    32236 1
   33338    32216    32217 1
   33339    32216    32237 1
   33340    32216    32238 1
   33341    32217    32218 1
   33342    32217    32239 1
   33343    32217    32240 1
   33344    32218    32219 1
   33345    32218    32241 1
   33346    32218    32242 1
   33347    32219    32220 1
   33348    32219    32243 1
   33349    32219    32244 1
   33350    32220    32221 1
   33351    32220    32245 1
   33352    32220    32246 1
   33353    32221    32222 1
   33354    32221    32247 1
   33355    32221    32248 1
   33356    32222    32223 1
   33357    32222    32249 1
   33358    32222    32250 1
   33359    32223    32224 1
   33360    32223    32251 1
   33361    32223    32252 1
   33362    32224    32225 1
   33363    32224    32253 1
   33364    32224    32254 1
   33365    32225    32255 1
   33366    32225    32256 1
   33367    32225    32257 1
   33368    32226    32227 1
   33369    32226    32258 1
   33370    32226    32259 1
   33371    32227    32228 1
   33372    32227    32260 1
   33373    32227    32261 1
   33374    32228    32229 1
   33375    32228    32262 1
   33376    32228    32263 1
   33377    32229    32230 1
   33378    32229    32264 1
   33379    32229    32265 1
   33380    32230    32231 1
   33381    32230    32266 1
   33382    32230    32267 1
   33383    32231    32232 1
   33384    32231    32268 1
   33385    32231    32269 1
   33386    32232    32233 1
   33387    32232    32270 1
   33388    32232    32271 1
   33389    32233    32272 1
   33390    32233    32273 1
   33391    32233    32274 1
   33392    32275    32276 1
   33393    32275    32295 1
   33394    32275    32296 1
   33395    32276    32277 1
   33396    32276    32287 1
   33397    32276    32297 1
   33398    32277    32278 1
   33399    32277    32298 1
   33400    32277    32299 1
   33401    32278    32279 1
   33402    32278    32300 1
   33403    32278    32301 1
   33404    32279    32280 1
   33405    32279    32302 1
   33406    32279    32303 1
   33407    32280    32281 1
   33408    32280    32304 1
   33409    32280    32305 1
   33410    32281    32282 1
   33411    32281    32306 1
   33412    32281    32307 1
   33413    32282    32283 1
   33414    32282    32308 1
   33415    32282    32309 1
   33416    32283    32284 1
   33417    32283    32310 1
   33418    32283    32311 1
   33419    32284    32285 1
   33420    32284    32312 1
   33421    32284    32313 1
   33422    32285    32286 1
   33423    32285    32314 1
   33424    32285    32315 1
   33425    32286    32316 1
   33426    32286    32317 1
   33427    32286    32318 1
   33428    32287    32288 1
   33429    32287    32319 1
   33430    32287    32320 1
   33431    32288    32289 1
   33432    32288    32321 1
   33433    32288    32322 1
   33434    32289    32290 1
   33435    32289    32323 1
   33436    32289    32324 1
   33437    32290    32291 1
   33438    32290    32325 1
   33439    32290    32326 1
   33440    32291    32292 1
   33441    32291    32327 1
   33442    32291    32328 1
   33443    32292    32293 1
   33444    32292    32329 1
   33445    32292    32330 1
   33446    32293    32294 1
   33447    32293    32331 1
   33448    32293    32332 1
   33449    32294    32333 1
   33450    32294    32334 1
   33451    32294    32335 1
   33452    32336    32337 1
   33453    32336    32343 1
   33454    32336    32359 1
   33455    32336    32420 1
   33456    32337    32338 1
   33457    32337    32341 1
   33458    32338    32339 1
   33459    32338    32342 1
   33460    32339    32340 1
   33461    32340    32341 1
   33462    32341    32347 1
   33463    32342    32343 1
   33464    32342    32346 1
   33465    32343    32344 1
   33466    32344    32345 1
   33467    32344    32348 1
   33468    32345    32346 1
   33469    32345    32351 1
   33470    32349    32350 1
   33471    32349    32357 1
   33472    32350    32351 1
   33473    32350    32358 1
   33474    32351    32352 1
   33475    32352    32353 1
   33476    32352    32356 1
   33477    32353    32354 1
   33478    32354    32355 1
   33479    32355    32356 1
   33480    32356    32357 1
   33481    32357    32485 1
   33482    32359    32360 1
   33483    32359    32379 1
   33484    32359    32380 1
   33485    32360    32361 1
   33486    32360    32371 1
   33487    32360    32381 1
   33488    32361    32362 1
   33489    32361    32382 1
   33490    32361    32383 1
   33491    32362    32363 1
   33492    32362    32384 1
   33493    32362    32385 1
   33494    32363    32364 1
   33495    32363    32386 1
   33496    32363    32387 1
   33497    32364    32365 1
   33498    32364    32388 1
   33499    32364    32389 1
   33500    32365    32366 1
   33501    32365    32390 1
   33502    32365    32391 1
   33503    32366    32367 1
   33504    32366    32392 1
   33505    32366    32393 1
   33506    32367    32368 1
   33507    32367    32394 1
   33508    32367    32395 1
   33509    32368    32369 1
   33510    32368    32396 1
   33511    32368    32397 1
   33512    32369    32370 1
   33513    32369    32398 1
   33514    32369    32399 1
   33515    32370    32400 1
   33516    32370    32401 1
   33517    32370    32402 1
   33518    32371    32372 1
   33519    32371    32403 1
   33520    32371    32404 1
   33521    32372    32373 1
   33522    32372    32405 1
   33523    32372    32406 1
   33524    32373    32374 1
   33525    32373    32407 1
   33526    32373    32408 1
   33527    32374    32375 1
   33528    32374    32409 1
   33529    32374    32410 1
   33530    32375    32376 1
   33531    32375    32411 1
   33532    32375    32412 1
   33533    32376    32377 1
   33534    32376    32413 1
   33535    32376    32414 1
   33536    32377    32378 1
   33537    32377    32415 1
   33538    32377    32416 1
   33539    32378    32417 1
   33540    32378    32418 1
   33541    32378    32419 1
   33542    32420    32421 1
   33543    32420    32440 1
   33544    32420    32441 1
   33545    32421    32422 1
   33546    32421    32432 1
   33547    32421    32442 1
   33548    32422    32423 1
   33549    32422    32443 1
   33550    32422    32444 1
   33551    32423    32424 1
   33552    32423    32445 1
   33553    32423    32446 1
   33554    32424    32425 1
   33555    32424    32447 1
   33556    32424    32448 1
   33557    32425    32426 1
   33558    32425    32449 1
   33559    32425    32450 1
   33560    32426    32427 1
   33561    32426    32451 1
   33562    32426    32452 1
   33563    32427    32428 1
   33564    32427    32453 1
   33565    32427    32454 1
   33566    32428    32429 1
   33567    32428    32455 1
   33568    32428    32456 1
   33569    32429    32430 1
   33570    32429    32457 1
   33571    32429    32458 1
   33572    32430    32431 1
   33573    32430    32459 1
   33574    32430    32460 1
   33575    32431    32461 1
   33576    32431    32462 1
   33577    32431    32463 1
   33578    32432    32433 1
   33579    32432    32464 1
   33580    32432    32465 1
   33581    32433    32434 1
   33582    32433    32466 1
   33583    32433    32467 1
   33584    32434    32435 1
   33585    32434    32468 1
   33586    32434    32469 1
   33587    32435    32436 1
   33588    32435    32470 1
   33589    32435    32471 1
   33590    32436    32437 1
   33591    32436    32472 1
   33592    32436    32473 1
   33593    32437    32438 1
   33594    32437    32474 1
   33595    32437    32475 1
   33596    32438    32439 1
   33597    32438    32476 1
   33598    32438    32477 1
   33599    32439    32478 1
   33600    32439    32479 1
   33601    32439    32480 1
   33602    32481    32482 1
   33603    32481    32488 1
   33604    32481    32504 1
   33605    32481    32565 1
   33606    32482    32483 1
   33607    32482    32486 1
   33608    32483    32484 1
   33609    32483    32487 1
   33610    32484    32485 1
   33611    32485    32486 1
   33612    32486    32492 1
   33613    32487    32488 1
   33614    32487    32491 1
   33615    32488    32489 1
   33616    32489    32490 1
   33617    32489    32493 1
   33618    32490    32491 1
   33619    32490    32496 1
   33620    32494    32495 1
   33621    32494    32502 1
   33622    32495    32496 1
   33623    32495    32503 1
   33624    32496    32497 1
   33625    32497    32498 1
   33626    32497    32501 1
   33627    32498    32499 1
   33628    32499    32500 1
   33629    32500    32501 1
   33630    32501    32502 1
   33631    32502    32630 1
   33632    32504    32505 1
   33633    32504    32524 1
   33634    32504    32525 1
   33635    32505    32506 1
   33636    32505    32516 1
   33637    32505    32526 1
   33638    32506    32507 1
   33639    32506    32527 1
   33640    32506    32528 1
   33641    32507    32508 1
   33642    32507    32529 1
   33643    32507    32530 1
   33644    32508    32509 1
   33645    32508    32531 1
   33646    32508    32532 1
   33647    32509    32510 1
   33648    32509    32533 1
   33649    32509    32534 1
   33650    32510    32511 1
   33651    32510    32535 1
   33652    32510    32536 1
   33653    32511    32512 1
   33654    32511    32537 1
   33655    32511    32538 1
   33656    32512    32513 1
   33657    32512    32539 1
   33658    32512    32540 1
   33659    32513    32514 1
   33660    32513    32541 1
   33661    32513    32542 1
   33662    32514    32515 1
   33663    32514    32543 1
   33664    32514    32544 1
   33665    32515    32545 1
   33666    32515    32546 1
   33667    32515    32547 1
   33668    32516    32517 1
   33669    32516    32548 1
   33670    32516    32549 1
   33671    32517    32518 1
   33672    32517    32550 1
   33673    32517    32551 1
   33674    32518    32519 1
   33675    32518    32552 1
   33676    32518    32553 1
   33677    32519    32520 1
   33678    32519    32554 1
   33679    32519    32555 1
   33680    32520    32521 1
   33681    32520    32556 1
   33682    32520    32557 1
   33683    32521    32522 1
   33684    32521    32558 1
   33685    32521    32559 1
   33686    32522    32523 1
   33687    32522    32560 1
   33688    32522    32561 1
   33689    32523    32562 1
   33690    32523    32563 1
   33691    32523    32564 1
   33692    32565    32566 1
   33693    32565    32585 1
   33694    32565    32586 1
   33695    32566    32567 1
   33696    32566    32577 1
   33697    32566    32587 1
   33698    32567    32568 1
   33699    32567    32588 1
   33700    32567    32589 1
   33701    32568    32569 1
   33702    32568    32590 1
   33703    32568    32591 1
   33704    32569    32570 1
   33705    32569    32592 1
   33706    32569    32593 1
   33707    32570    32571 1
   33708    32570    32594 1
   33709    32570    32595 1
   33710    32571    32572 1
   33711    32571    32596 1
   33712    32571    32597 1
   33713    32572    32573 1
   33714    32572    32598 1
   33715    32572    32599 1
   33716    32573    32574 1
   33717    32573    32600 1
   33718    32573    32601 1
   33719    32574    32575 1
   33720    32574    32602 1
   33721    32574    32603 1
   33722    32575    32576 1
   33723    32575    32604 1
   33724    32575    32605 1
   33725    32576    32606 1
   33726    32576    32607 1
   33727    32576    32608 1
   33728    32577    32578 1
   33729    32577    32609 1
   33730    32577    32610 1
   33731    32578    32579 1
   33732    32578    32611 1
   33733    32578    32612 1
   33734    32579    32580 1
   33735    32579    32613 1
   33736    32579    32614 1
   33737    32580    32581 1
   33738    32580    32615 1
   33739    32580    32616 1
   33740    32581    32582 1
   33741    32581    32617 1
   33742    32581    32618 1
   33743    32582    32583 1
   33744    32582    32619 1
   33745    32582    32620 1
   33746    32583    32584 1
   33747    32583    32621 1
   33748    32583    32622 1
   33749    32584    32623 1
   33750    32584    32624 1
   33751    32584    32625 1
   33752    32626    32627 1
   33753    32626    32633 1
   33754    32626    32649 1
   33755    32626    32710 1
   33756    32627    32628 1
   33757    32627    32631 1
   33758    32628    32629 1
   33759    32628    32632 1
   33760    32629    32630 1
   33761    32630    32631 1
   33762    32631    32637 1
   33763    32632    32633 1
   33764    32632    32636 1
   33765    32633    32634 1
   33766    32634    32635 1
   33767    32634    32638 1
   33768    32635    32636 1
   33769    32635    32641 1
   33770    32639    32640 1
   33771    32639    32647 1
   33772    32640    32641 1
   33773    32640    32648 1
   33774    32641    32642 1
   33775    32642    32643 1
   33776    32642    32646 1
   33777    32643    32644 1
   33778    32644    32645 1
   33779    32645    32646 1
   33780    32646    32647 1
   33781    32647    32775 1
   33782    32649    32650 1
   33783    32649    32669 1
   33784    32649    32670 1
   33785    32650    32651 1
   33786    32650    32661 1
   33787    32650    32671 1
   33788    32651    32652 1
   33789    32651    32672 1
   33790    32651    32673 1
   33791    32652    32653 1
   33792    32652    32674 1
   33793    32652    32675 1
   33794    32653    32654 1
   33795    32653    32676 1
   33796    32653    32677 1
   33797    32654    32655 1
   33798    32654    32678 1
   33799    32654    32679 1
   33800    32655    32656 1
   33801    32655    32680 1
   33802    32655    32681 1
   33803    32656    32657 1
   33804    32656    32682 1
   33805    32656    32683 1
   33806    32657    32658 1
   33807    32657    32684 1
   33808    32657    32685 1
   33809    32658    32659 1
   33810    32658    32686 1
   33811    32658    32687 1
   33812    32659    32660 1
   33813    32659    32688 1
   33814    32659    32689 1
   33815    32660    32690 1
   33816    32660    32691 1
   33817    32660    32692 1
   33818    32661    32662 1
   33819    32661    32693 1
   33820    32661    32694 1
   33821    32662    32663 1
   33822    32662    32695 1
   33823    32662    32696 1
   33824    32663    32664 1
   33825    32663    32697 1
   33826    32663    32698 1
   33827    32664    32665 1
   33828    32664    32699 1
   33829    32664    32700 1
   33830    32665    32666 1
   33831    32665    32701 1
   33832    32665    32702 1
   33833    32666    32667 1
   33834    32666    32703 1
   33835    32666    32704 1
   33836    32667    32668 1
   33837    32667    32705 1
   33838    32667    32706 1
   33839    32668    32707 1
   33840    32668    32708 1
   33841    32668    32709 1
   33842    32710    32711 1
   33843    32710    32730 1
   33844    32710    32731 1
   33845    32711    32712 1
   33846    32711    32722 1
   33847    32711    32732 1
   33848    32712    32713 1
   33849    32712    32733 1
   33850    32712    32734 1
   33851    32713    32714 1
   33852    32713    32735 1
   33853    32713    32736 1
   33854    32714    32715 1
   33855    32714    32737 1
   33856    32714    32738 1
   33857    32715    32716 1
   33858    32715    32739 1
   33859    32715    32740 1
   33860    32716    32717 1
   33861    32716    32741 1
   33862    32716    32742 1
   33863    32717    32718 1
   33864    32717    32743 1
   33865    32717    32744 1
   33866    32718    32719 1
   33867    32718    32745 1
   33868    32718    32746 1
   33869    32719    32720 1
   33870    32719    32747 1
   33871    32719    32748 1
   33872    32720    32721 1
   33873    32720    32749 1
   33874    32720    32750 1
   33875    32721    32751 1
   33876    32721    32752 1
   33877    32721    32753 1
   33878    32722    32723 1
   33879    32722    32754 1
   33880    32722    32755 1
   33881    32723    32724 1
   33882    32723    32756 1
   33883    32723    32757 1
   33884    32724    32725 1
   33885    32724    32758 1
   33886    32724    32759 1
   33887    32725    32726 1
   33888    32725    32760 1
   33889    32725    32761 1
   33890    32726    32727 1
   33891    32726    32762 1
   33892    32726    32763 1
   33893    32727    32728 1
   33894    32727    32764 1
   33895    32727    32765 1
   33896    32728    32729 1
   33897    32728    32766 1
   33898    32728    32767 1
   33899    32729    32768 1
   33900    32729    32769 1
   33901    32729    32770 1
   33902    32771    32772 1
   33903    32771    32778 1
   33904    32771    32794 1
   33905    32771    32855 1
   33906    32772    32773 1
   33907    32772    32776 1
   33908    32773    32774 1
   33909    32773    32777 1
   33910    32774    32775 1
   33911    32775    32776 1
   33912    32776    32782 1
   33913    32777    32778 1
   33914    32777    32781 1
   33915    32778    32779 1
   33916    32779    32780 1
   33917    32779    32783 1
   33918    32780    32781 1
   33919    32780    32786 1
   33920    32784    32785 1
   33921    32784    32792 1
   33922    32785    32786 1
   33923    32785    32793 1
   33924    32786    32787 1
   33925    32787    32788 1
   33926    32787    32791 1
   33927    32788    32789 1
   33928    32789    32790 1
   33929    32790    32791 1
   33930    32791    32792 1
   33931    32792    32920 1
   33932    32794    32795 1
   33933    32794    32814 1
   33934    32794    32815 1
   33935    32795    32796 1
   33936    32795    32806 1
   33937    32795    32816 1
   33938    32796    32797 1
   33939    32796    32817 1
   33940    32796    32818 1
   33941    32797    32798 1
   33942    32797    32819 1
   33943    32797    32820 1
   33944    32798    32799 1
   33945    32798    32821 1
   33946    32798    32822 1
   33947    32799    32800 1
   33948    32799    32823 1
   33949    32799    32824 1
   33950    32800    32801 1
   33951    32800    32825 1
   33952    32800    32826 1
   33953    32801    32802 1
   33954    32801    32827 1
   33955    32801    32828 1
   33956    32802    32803 1
   33957    32802    32829 1
   33958    32802    32830 1
   33959    32803    32804 1
   33960    32803    32831 1
   33961    32803    32832 1
   33962    32804    32805 1
   33963    32804    32833 1
   33964    32804    32834 1
   33965    32805    32835 1
   33966    32805    32836 1
   33967    32805    32837 1
   33968    32806    32807 1
   33969    32806    32838 1
   33970    32806    32839 1
   33971    32807    32808 1
   33972    32807    32840 1
   33973    32807    32841 1
   33974    32808    32809 1
   33975    32808    32842 1
   33976    32808    32843 1
   33977    32809    32810 1
   33978    32809    32844 1
   33979    32809    32845 1
   33980    32810    32811 1
   33981    32810    32846 1
   33982    32810    32847 1
   33983    32811    32812 1
   33984    32811    32848 1
   33985    32811    32849 1
   33986    32812    32813 1
   33987    32812    32850 1
   33988    32812    32851 1
   33989    32813    32852 1
   33990    32813    32853 1
   33991    32813    32854 1
   33992    32855    32856 1
   33993    32855    32875 1
   33994    32855    32876 1
   33995    32856    32857 1
   33996    32856    32867 1
   33997    32856    32877 1
   33998    32857    32858 1
   33999    32857    32878 1
   34000    32857    32879 1
   34001    32858    32859 1
   34002    32858    32880 1
   34003    32858    32881 1
   34004    32859    32860 1
   34005    32859    32882 1
   34006    32859    32883 1
   34007    32860    32861 1
   34008    32860    32884 1
   34009    32860    32885 1
   34010    32861    32862 1
   34011    32861    32886 1
   34012    32861    32887 1
   34013    32862    32863 1
   34014    32862    32888 1
   34015    32862    32889 1
   34016    32863    32864 1
   34017    32863    32890 1
   34018    32863    32891 1
   34019    32864    32865 1
   34020    32864    32892 1
   34021    32864    32893 1
   34022    32865    32866 1
   34023    32865    32894 1
   34024    32865    32895 1
   34025    32866    32896 1
   34026    32866    32897 1
   34027    32866    32898 1
   34028    32867    32868 1
   34029    32867    32899 1
   34030    32867    32900 1
   34031    32868    32869 1
   34032    32868    32901 1
   34033    32868    32902 1
   34034    32869    32870 1
   34035    32869    32903 1
   34036    32869    32904 1
   34037    32870    32871 1
   34038    32870    32905 1
   34039    32870    32906 1
   34040    32871    32872 1
   34041    32871    32907 1
   34042    32871    32908 1
   34043    32872    32873 1
   34044    32872    32909 1
   34045    32872    32910 1
   34046    32873    32874 1
   34047    32873    32911 1
   34048    32873    32912 1
   34049    32874    32913 1
   34050    32874    32914 1
   34051    32874    32915 1
   34052    32916    32917 1
   34053    32916    32923 1
   34054    32916    32939 1
   34055    32916    33000 1
   34056    32917    32918 1
   34057    32917    32921 1
   34058    32918    32919 1
   34059    32918    32922 1
   34060    32919    32920 1
   34061    32920    32921 1
   34062    32921    32927 1
   34063    32922    32923 1
   34064    32922    32926 1
   34065    32923    32924 1
   34066    32924    32925 1
   34067    32924    32928 1
   34068    32925    32926 1
   34069    32925    32931 1
   34070    32929    32930 1
   34071    32929    32937 1
   34072    32930    32931 1
   34073    32930    32938 1
   34074    32931    32932 1
   34075    32932    32933 1
   34076    32932    32936 1
   34077    32933    32934 1
   34078    32934    32935 1
   34079    32935    32936 1
   34080    32936    32937 1
   34081    32937    33065 1
   34082    32939    32940 1
   34083    32939    32959 1
   34084    32939    32960 1
   34085    32940    32941 1
   34086    32940    32951 1
   34087    32940    32961 1
   34088    32941    32942 1
   34089    32941    32962 1
   34090    32941    32963 1
   34091    32942    32943 1
   34092    32942    32964 1
   34093    32942    32965 1
   34094    32943    32944 1
   34095    32943    32966 1
   34096    32943    32967 1
   34097    32944    32945 1
   34098    32944    32968 1
   34099    32944    32969 1
   34100    32945    32946 1
   34101    32945    32970 1
   34102    32945    32971 1
   34103    32946    32947 1
   34104    32946    32972 1
   34105    32946    32973 1
   34106    32947    32948 1
   34107    32947    32974 1
   34108    32947    32975 1
   34109    32948    32949 1
   34110    32948    32976 1
   34111    32948    32977 1
   34112    32949    32950 1
   34113    32949    32978 1
   34114    32949    32979 1
   34115    32950    32980 1
   34116    32950    32981 1
   34117    32950    32982 1
   34118    32951    32952 1
   34119    32951    32983 1
   34120    32951    32984 1
   34121    32952    32953 1
   34122    32952    32985 1
   34123    32952    32986 1
   34124    32953    32954 1
   34125    32953    32987 1
   34126    32953    32988 1
   34127    32954    32955 1
   34128    32954    32989 1
   34129    32954    32990 1
   34130    32955    32956 1
   34131    32955    32991 1
   34132    32955    32992 1
   34133    32956    32957 1
   34134    32956    32993 1
   34135    32956    32994 1
   34136    32957    32958 1
   34137    32957    32995 1
   34138    32957    32996 1
   34139    32958    32997 1
   34140    32958    32998 1
   34141    32958    32999 1
   34142    33000    33001 1
   34143    33000    33020 1
   34144    33000    33021 1
   34145    33001    33002 1
   34146    33001    33012 1
   34147    33001    33022 1
   34148    33002    33003 1
   34149    33002    33023 1
   34150    33002    33024 1
   34151    33003    33004 1
   34152    33003    33025 1
   34153    33003    33026 1
   34154    33004    33005 1
   34155    33004    33027 1
   34156    33004    33028 1
   34157    33005    33006 1
   34158    33005    33029 1
   34159    33005    33030 1
   34160    33006    33007 1
   34161    33006    33031 1
   34162    33006    33032 1
   34163    33007    33008 1
   34164    33007    33033 1
   34165    33007    33034 1
   34166    33008    33009 1
   34167    33008    33035 1
   34168    33008    33036 1
   34169    33009    33010 1
   34170    33009    33037 1
   34171    33009    33038 1
   34172    33010    33011 1
   34173    33010    33039 1
   34174    33010    33040 1
   34175    33011    33041 1
   34176    33011    33042 1
   34177    33011    33043 1
   34178    33012    33013 1
   34179    33012    33044 1
   34180    33012    33045 1
   34181    33013    33014 1
   34182    33013    33046 1
   34183    33013    33047 1
   34184    33014    33015 1
   34185    33014    33048 1
   34186    33014    33049 1
   34187    33015    33016 1
   34188    33015    33050 1
   34189    33015    33051 1
   34190    33016    33017 1
   34191    33016    33052 1
   34192    33016    33053 1
   34193    33017    33018 1
   34194    33017    33054 1
   34195    33017    33055 1
   34196    33018    33019 1
   34197    33018    33056 1
   34198    33018    33057 1
   34199    33019    33058 1
   34200    33019    33059 1
   34201    33019    33060 1
   34202    33061    33062 1
   34203    33061    33068 1
   34204    33061    33084 1
   34205    33061    33145 1
   34206    33062    33063 1
   34207    33062    33066 1
   34208    33063    33064 1
   34209    33063    33067 1
   34210    33064    33065 1
   34211    33065    33066 1
   34212    33066    33072 1
   34213    33067    33068 1
   34214    33067    33071 1
   34215    33068    33069 1
   34216    33069    33070 1
   34217    33069    33073 1
   34218    33070    33071 1
   34219    33070    33076 1
   34220    33074    33075 1
   34221    33074    33082 1
   34222    33075    33076 1
   34223    33075    33083 1
   34224    33076    33077 1
   34225    33077    33078 1
   34226    33077    33081 1
   34227    33078    33079 1
   34228    33079    33080 1
   34229    33080    33081 1
   34230    33081    33082 1
   34231    33082    33210 1
   34232    33084    33085 1
   34233    33084    33104 1
   34234    33084    33105 1
   34235    33085    33086 1
   34236    33085    33096 1
   34237    33085    33106 1
   34238    33086    33087 1
   34239    33086    33107 1
   34240    33086    33108 1
   34241    33087    33088 1
   34242    33087    33109 1
   34243    33087    33110 1
   34244    33088    33089 1
   34245    33088    33111 1
   34246    33088    33112 1
   34247    33089    33090 1
   34248    33089    33113 1
   34249    33089    33114 1
   34250    33090    33091 1
   34251    33090    33115 1
   34252    33090    33116 1
   34253    33091    33092 1
   34254    33091    33117 1
   34255    33091    33118 1
   34256    33092    33093 1
   34257    33092    33119 1
   34258    33092    33120 1
   34259    33093    33094 1
   34260    33093    33121 1
   34261    33093    33122 1
   34262    33094    33095 1
   34263    33094    33123 1
   34264    33094    33124 1
   34265    33095    33125 1
   34266    33095    33126 1
   34267    33095    33127 1
   34268    33096    33097 1
   34269    33096    33128 1
   34270    33096    33129 1
   34271    33097    33098 1
   34272    33097    33130 1
   34273    33097    33131 1
   34274    33098    33099 1
   34275    33098    33132 1
   34276    33098    33133 1
   34277    33099    33100 1
   34278    33099    33134 1
   34279    33099    33135 1
   34280    33100    33101 1
   34281    33100    33136 1
   34282    33100    33137 1
   34283    33101    33102 1
   34284    33101    33138 1
   34285    33101    33139 1
   34286    33102    33103 1
   34287    33102    33140 1
   34288    33102    33141 1
   34289    33103    33142 1
   34290    33103    33143 1
   34291    33103    33144 1
   34292    33145    33146 1
   34293    33145    33165 1
   34294    33145    33166 1
   34295    33146    33147 1
   34296    33146    33157 1
   34297    33146    33167 1
   34298    33147    33148 1
   34299    33147    33168 1
   34300    33147    33169 1
   34301    33148    33149 1
   34302    33148    33170 1
   34303    33148    33171 1
   34304    33149    33150 1
   34305    33149    33172 1
   34306    33149    33173 1
   34307    33150    33151 1
   34308    33150    33174 1
   34309    33150    33175 1
   34310    33151    33152 1
   34311    33151    33176 1
   34312    33151    33177 1
   34313    33152    33153 1
   34314    33152    33178 1
   34315    33152    33179 1
   34316    33153    33154 1
   34317    33153    33180 1
   34318    33153    33181 1
   34319    33154    33155 1
   34320    33154    33182 1
   34321    33154    33183 1
   34322    33155    33156 1
   34323    33155    33184 1
   34324    33155    33185 1
   34325    33156    33186 1
   34326    33156    33187 1
   34327    33156    33188 1
   34328    33157    33158 1
   34329    33157    33189 1
   34330    33157    33190 1
   34331    33158    33159 1
   34332    33158    33191 1
   34333    33158    33192 1
   34334    33159    33160 1
   34335    33159    33193 1
   34336    33159    33194 1
   34337    33160    33161 1
   34338    33160    33195 1
   34339    33160    33196 1
   34340    33161    33162 1
   34341    33161    33197 1
   34342    33161    33198 1
   34343    33162    33163 1
   34344    33162    33199 1
   34345    33162    33200 1
   34346    33163    33164 1
   34347    33163    33201 1
   34348    33163    33202 1
   34349    33164    33203 1
   34350    33164    33204 1
   34351    33164    33205 1
   34352    33206    33207 1
   34353    33206    33213 1
   34354    33206    33229 1
   34355    33206    33290 1
   34356    33207    33208 1
   34357    33207    33211 1
   34358    33208    33209 1
   34359    33208    33212 1
   34360    33209    33210 1
   34361    33210    33211 1
   34362    33211    33217 1
   34363    33212    33213 1
   34364    33212    33216 1
   34365    33213    33214 1
   34366    33214    33215 1
   34367    33214    33218 1
   34368    33215    33216 1
   34369    33215    33221 1
   34370    33219    33220 1
   34371    33219    33227 1
   34372    33220    33221 1
   34373    33220    33228 1
   34374    33221    33222 1
   34375    33222    33223 1
   34376    33222    33226 1
   34377    33223    33224 1
   34378    33224    33225 1
   34379    33225    33226 1
   34380    33226    33227 1
   34381    33227    33355 1
   34382    33229    33230 1
   34383    33229    33249 1
   34384    33229    33250 1
   34385    33230    33231 1
   34386    33230    33241 1
   34387    33230    33251 1
   34388    33231    33232 1
   34389    33231    33252 1
   34390    33231    33253 1
   34391    33232    33233 1
   34392    33232    33254 1
   34393    33232    33255 1
   34394    33233    33234 1
   34395    33233    33256 1
   34396    33233    33257 1
   34397    33234    33235 1
   34398    33234    33258 1
   34399    33234    33259 1
   34400    33235    33236 1
   34401    33235    33260 1
   34402    33235    33261 1
   34403    33236    33237 1
   34404    33236    33262 1
   34405    33236    33263 1
   34406    33237    33238 1
   34407    33237    33264 1
   34408    33237    33265 1
   34409    33238    33239 1
   34410    33238    33266 1
   34411    33238    33267 1
   34412    33239    33240 1
   34413    33239    33268 1
   34414    33239    33269 1
   34415    33240    33270 1
   34416    33240    33271 1
   34417    33240    33272 1
   34418    33241    33242 1
   34419    33241    33273 1
   34420    33241    33274 1
   34421    33242    33243 1
   34422    33242    33275 1
   34423    33242    33276 1
   34424    33243    33244 1
   34425    33243    33277 1
   34426    33243    33278 1
   34427    33244    33245 1
   34428    33244    33279 1
   34429    33244    33280 1
   34430    33245    33246 1
   34431    33245    33281 1
   34432    33245    33282 1
   34433    33246    33247 1
   34434    33246    33283 1
   34435    33246    33284 1
   34436    33247    33248 1
   34437    33247    33285 1
   34438    33247    33286 1
   34439    33248    33287 1
   34440    33248    33288 1
   34441    33248    33289 1
   34442    33290    33291 1
   34443    33290    33310 1
   34444    33290    33311 1
   34445    33291    33292 1
   34446    33291    33302 1
   34447    33291    33312 1
   34448    33292    33293 1
   34449    33292    33313 1
   34450    33292    33314 1
   34451    33293    33294 1
   34452    33293    33315 1
   34453    33293    33316 1
   34454    33294    33295 1
   34455    33294    33317 1
   34456    33294    33318 1
   34457    33295    33296 1
   34458    33295    33319 1
   34459    33295    33320 1
   34460    33296    33297 1
   34461    33296    33321 1
   34462    33296    33322 1
   34463    33297    33298 1
   34464    33297    33323 1
   34465    33297    33324 1
   34466    33298    33299 1
   34467    33298    33325 1
   34468    33298    33326 1
   34469    33299    33300 1
   34470    33299    33327 1
   34471    33299    33328 1
   34472    33300    33301 1
   34473    33300    33329 1
   34474    33300    33330 1
   34475    33301    33331 1
   34476    33301    33332 1
   34477    33301    33333 1
   34478    33302    33303 1
   34479    33302    33334 1
   34480    33302    33335 1
   34481    33303    33304 1
   34482    33303    33336 1
   34483    33303    33337 1
   34484    33304    33305 1
   34485    33304    33338 1
   34486    33304    33339 1
   34487    33305    33306 1
   34488    33305    33340 1
   34489    33305    33341 1
   34490    33306    33307 1
   34491    33306    33342 1
   34492    33306    33343 1
   34493    33307    33308 1
   34494    33307    33344 1
   34495    33307    33345 1
   34496    33308    33309 1
   34497    33308    33346 1
   34498    33308    33347 1
   34499    33309    33348 1
   34500    33309    33349 1
   34501    33309    33350 1
   34502    33351    33352 1
   34503    33351    33358 1
   34504    33351    33374 1
   34505    33351    33435 1
   34506    33352    33353 1
   34507    33352    33356 1
   34508    33353    33354 1
   34509    33353    33357 1
   34510    33354    33355 1
   34511    33355    33356 1
   34512    33356    33362 1
   34513    33357    33358 1
   34514    33357    33361 1
   34515    33358    33359 1
   34516    33359    33360 1
   34517    33359    33363 1
   34518    33360    33361 1
   34519    33360    33366 1
   34520    33364    33365 1
   34521    33364    33372 1
   34522    33365    33366 1
   34523    33365    33373 1
   34524    33366    33367 1
   34525    33367    33368 1
   34526    33367    33371 1
   34527    33368    33369 1
   34528    33369    33370 1
   34529    33370    33371 1
   34530    33371    33372 1
   34531    33372    33500 1
   34532    33374    33375 1
   34533    33374    33394 1
   34534    33374    33395 1
   34535    33375    33376 1
   34536    33375    33386 1
   34537    33375    33396 1
   34538    33376    33377 1
   34539    33376    33397 1
   34540    33376    33398 1
   34541    33377    33378 1
   34542    33377    33399 1
   34543    33377    33400 1
   34544    33378    33379 1
   34545    33378    33401 1
   34546    33378    33402 1
   34547    33379    33380 1
   34548    33379    33403 1
   34549    33379    33404 1
   34550    33380    33381 1
   34551    33380    33405 1
   34552    33380    33406 1
   34553    33381    33382 1
   34554    33381    33407 1
   34555    33381    33408 1
   34556    33382    33383 1
   34557    33382    33409 1
   34558    33382    33410 1
   34559    33383    33384 1
   34560    33383    33411 1
   34561    33383    33412 1
   34562    33384    33385 1
   34563    33384    33413 1
   34564    33384    33414 1
   34565    33385    33415 1
   34566    33385    33416 1
   34567    33385    33417 1
   34568    33386    33387 1
   34569    33386    33418 1
   34570    33386    33419 1
   34571    33387    33388 1
   34572    33387    33420 1
   34573    33387    33421 1
   34574    33388    33389 1
   34575    33388    33422 1
   34576    33388    33423 1
   34577    33389    33390 1
   34578    33389    33424 1
   34579    33389    33425 1
   34580    33390    33391 1
   34581    33390    33426 1
   34582    33390    33427 1
   34583    33391    33392 1
   34584    33391    33428 1
   34585    33391    33429 1
   34586    33392    33393 1
   34587    33392    33430 1
   34588    33392    33431 1
   34589    33393    33432 1
   34590    33393    33433 1
   34591    33393    33434 1
   34592    33435    33436 1
   34593    33435    33455 1
   34594    33435    33456 1
   34595    33436    33437 1
   34596    33436    33447 1
   34597    33436    33457 1
   34598    33437    33438 1
   34599    33437    33458 1
   34600    33437    33459 1
   34601    33438    33439 1
   34602    33438    33460 1
   34603    33438    33461 1
   34604    33439    33440 1
   34605    33439    33462 1
   34606    33439    33463 1
   34607    33440    33441 1
   34608    33440    33464 1
   34609    33440    33465 1
   34610    33441    33442 1
   34611    33441    33466 1
   34612    33441    33467 1
   34613    33442    33443 1
   34614    33442    33468 1
   34615    33442    33469 1
   34616    33443    33444 1
   34617    33443    33470 1
   34618    33443    33471 1
   34619    33444    33445 1
   34620    33444    33472 1
   34621    33444    33473 1
   34622    33445    33446 1
   34623    33445    33474 1
   34624    33445    33475 1
   34625    33446    33476 1
   34626    33446    33477 1
   34627    33446    33478 1
   34628    33447    33448 1
   34629    33447    33479 1
   34630    33447    33480 1
   34631    33448    33449 1
   34632    33448    33481 1
   34633    33448    33482 1
   34634    33449    33450 1
   34635    33449    33483 1
   34636    33449    33484 1
   34637    33450    33451 1
   34638    33450    33485 1
   34639    33450    33486 1
   34640    33451    33452 1
   34641    33451    33487 1
   34642    33451    33488 1
   34643    33452    33453 1
   34644    33452    33489 1
   34645    33452    33490 1
   34646    33453    33454 1
   34647    33453    33491 1
   34648    33453    33492 1
   34649    33454    33493 1
   34650    33454    33494 1
   34651    33454    33495 1
   34652    33496    33497 1
   34653    33496    33503 1
   34654    33496    33519 1
   34655    33496    33580 1
   34656    33497    33498 1
   34657    33497    33501 1
   34658    33498    33499 1
   34659    33498    33502 1
   34660    33499    33500 1
   34661    33500    33501 1
   34662    33501    33507 1
   34663    33502    33503 1
   34664    33502    33506 1
   34665    33503    33504 1
   34666    33504    33505 1
   34667    33504    33508 1
   34668    33505    33506 1
   34669    33505    33511 1
   34670    33509    33510 1
   34671    33509    33517 1
   34672    33510    33511 1
   34673    33510    33518 1
   34674    33511    33512 1
   34675    33512    33513 1
   34676    33512    33516 1
   34677    33513    33514 1
   34678    33514    33515 1
   34679    33515    33516 1
   34680    33516    33517 1
   34681    33517    33645 1
   34682    33519    33520 1
   34683    33519    33539 1
   34684    33519    33540 1
   34685    33520    33521 1
   34686    33520    33531 1
   34687    33520    33541 1
   34688    33521    33522 1
   34689    33521    33542 1
   34690    33521    33543 1
   34691    33522    33523 1
   34692    33522    33544 1
   34693    33522    33545 1
   34694    33523    33524 1
   34695    33523    33546 1
   34696    33523    33547 1
   34697    33524    33525 1
   34698    33524    33548 1
   34699    33524    33549 1
   34700    33525    33526 1
   34701    33525    33550 1
   34702    33525    33551 1
   34703    33526    33527 1
   34704    33526    33552 1
   34705    33526    33553 1
   34706    33527    33528 1
   34707    33527    33554 1
   34708    33527    33555 1
   34709    33528    33529 1
   34710    33528    33556 1
   34711    33528    33557 1
   34712    33529    33530 1
   34713    33529    33558 1
   34714    33529    33559 1
   34715    33530    33560 1
   34716    33530    33561 1
   34717    33530    33562 1
   34718    33531    33532 1
   34719    33531    33563 1
   34720    33531    33564 1
   34721    33532    33533 1
   34722    33532    33565 1
   34723    33532    33566 1
   34724    33533    33534 1
   34725    33533    33567 1
   34726    33533    33568 1
   34727    33534    33535 1
   34728    33534    33569 1
   34729    33534    33570 1
   34730    33535    33536 1
   34731    33535    33571 1
   34732    33535    33572 1
   34733    33536    33537 1
   34734    33536    33573 1
   34735    33536    33574 1
   34736    33537    33538 1
   34737    33537    33575 1
   34738    33537    33576 1
   34739    33538    33577 1
   34740    33538    33578 1
   34741    33538    33579 1
   34742    33580    33581 1
   34743    33580    33600 1
   34744    33580    33601 1
   34745    33581    33582 1
   34746    33581    33592 1
   34747    33581    33602 1
   34748    33582    33583 1
   34749    33582    33603 1
   34750    33582    33604 1
   34751    33583    33584 1
   34752    33583    33605 1
   34753    33583    33606 1
   34754    33584    33585 1
   34755    33584    33607 1
   34756    33584    33608 1
   34757    33585    33586 1
   34758    33585    33609 1
   34759    33585    33610 1
   34760    33586    33587 1
   34761    33586    33611 1
   34762    33586    33612 1
   34763    33587    33588 1
   34764    33587    33613 1
   34765    33587    33614 1
   34766    33588    33589 1
   34767    33588    33615 1
   34768    33588    33616 1
   34769    33589    33590 1
   34770    33589    33617 1
   34771    33589    33618 1
   34772    33590    33591 1
   34773    33590    33619 1
   34774    33590    33620 1
   34775    33591    33621 1
   34776    33591    33622 1
   34777    33591    33623 1
   34778    33592    33593 1
   34779    33592    33624 1
   34780    33592    33625 1
   34781    33593    33594 1
   34782    33593    33626 1
   34783    33593    33627 1
   34784    33594    33595 1
   34785    33594    33628 1
   34786    33594    33629 1
   34787    33595    33596 1
   34788    33595    33630 1
   34789    33595    33631 1
   34790    33596    33597 1
   34791    33596    33632 1
   34792    33596    33633 1
   34793    33597    33598 1
   34794    33597    33634 1
   34795    33597    33635 1
   34796    33598    33599 1
   34797    33598    33636 1
   34798    33598    33637 1
   34799    33599    33638 1
   34800    33599    33639 1
   34801    33599    33640 1
   34802    33641    33642 1
   34803    33641    33648 1
   34804    33641    33664 1
   34805    33641    33725 1
   34806    33642    33643 1
   34807    33642    33646 1
   34808    33643    33644 1
   34809    33643    33647 1
   34810    33644    33645 1
   34811    33645    33646 1
   34812    33646    33652 1
   34813    33647    33648 1
   34814    33647    33651 1
   34815    33648    33649 1
   34816    33649    33650 1
   34817    33649    33653 1
   34818    33650    33651 1
   34819    33650    33656 1
   34820    33654    33655 1
   34821    33654    33662 1
   34822    33655    33656 1
   34823    33655    33663 1
   34824    33656    33657 1
   34825    33657    33658 1
   34826    33657    33661 1
   34827    33658    33659 1
   34828    33659    33660 1
   34829    33660    33661 1
   34830    33661    33662 1
   34831    33662    33790 1
   34832    33664    33665 1
   34833    33664    33684 1
   34834    33664    33685 1
   34835    33665    33666 1
   34836    33665    33676 1
   34837    33665    33686 1
   34838    33666    33667 1
   34839    33666    33687 1
   34840    33666    33688 1
   34841    33667    33668 1
   34842    33667    33689 1
   34843    33667    33690 1
   34844    33668    33669 1
   34845    33668    33691 1
   34846    33668    33692 1
   34847    33669    33670 1
   34848    33669    33693 1
   34849    33669    33694 1
   34850    33670    33671 1
   34851    33670    33695 1
   34852    33670    33696 1
   34853    33671    33672 1
   34854    33671    33697 1
   34855    33671    33698 1
   34856    33672    33673 1
   34857    33672    33699 1
   34858    33672    33700 1
   34859    33673    33674 1
   34860    33673    33701 1
   34861    33673    33702 1
   34862    33674    33675 1
   34863    33674    33703 1
   34864    33674    33704 1
   34865    33675    33705 1
   34866    33675    33706 1
   34867    33675    33707 1
   34868    33676    33677 1
   34869    33676    33708 1
   34870    33676    33709 1
   34871    33677    33678 1
   34872    33677    33710 1
   34873    33677    33711 1
   34874    33678    33679 1
   34875    33678    33712 1
   34876    33678    33713 1
   34877    33679    33680 1
   34878    33679    33714 1
   34879    33679    33715 1
   34880    33680    33681 1
   34881    33680    33716 1
   34882    33680    33717 1
   34883    33681    33682 1
   34884    33681    33718 1
   34885    33681    33719 1
   34886    33682    33683 1
   34887    33682    33720 1
   34888    33682    33721 1
   34889    33683    33722 1
   34890    33683    33723 1
   34891    33683    33724 1
   34892    33725    33726 1
   34893    33725    33745 1
   34894    33725    33746 1
   34895    33726    33727 1
   34896    33726    33737 1
   34897    33726    33747 1
   34898    33727    33728 1
   34899    33727    33748 1
   34900    33727    33749 1
   34901    33728    33729 1
   34902    33728    33750 1
   34903    33728    33751 1
   34904    33729    33730 1
   34905    33729    33752 1
   34906    33729    33753 1
   34907    33730    33731 1
   34908    33730    33754 1
   34909    33730    33755 1
   34910    33731    33732 1
   34911    33731    33756 1
   34912    33731    33757 1
   34913    33732    33733 1
   34914    33732    33758 1
   34915    33732    33759 1
   34916    33733    33734 1
   34917    33733    33760 1
   34918    33733    33761 1
   34919    33734    33735 1
   34920    33734    33762 1
   34921    33734    33763 1
   34922    33735    33736 1
   34923    33735    33764 1
   34924    33735    33765 1
   34925    33736    33766 1
   34926    33736    33767 1
   34927    33736    33768 1
   34928    33737    33738 1
   34929    33737    33769 1
   34930    33737    33770 1
   34931    33738    33739 1
   34932    33738    33771 1
   34933    33738    33772 1
   34934    33739    33740 1
   34935    33739    33773 1
   34936    33739    33774 1
   34937    33740    33741 1
   34938    33740    33775 1
   34939    33740    33776 1
   34940    33741    33742 1
   34941    33741    33777 1
   34942    33741    33778 1
   34943    33742    33743 1
   34944    33742    33779 1
   34945    33742    33780 1
   34946    33743    33744 1
   34947    33743    33781 1
   34948    33743    33782 1
   34949    33744    33783 1
   34950    33744    33784 1
   34951    33744    33785 1
   34952    33786    33787 1
   34953    33786    33793 1
   34954    33786    33809 1
   34955    33786    33870 1
   34956    33787    33788 1
   34957    33787    33791 1
   34958    33788    33789 1
   34959    33788    33792 1
   34960    33789    33790 1
   34961    33790    33791 1
   34962    33791    33797 1
   34963    33792    33793 1
   34964    33792    33796 1
   34965    33793    33794 1
   34966    33794    33795 1
   34967    33794    33798 1
   34968    33795    33796 1
   34969    33795    33801 1
   34970    33799    33800 1
   34971    33799    33807 1
   34972    33800    33801 1
   34973    33800    33808 1
   34974    33801    33802 1
   34975    33802    33803 1
   34976    33802    33806 1
   34977    33803    33804 1
   34978    33804    33805 1
   34979    33805    33806 1
   34980    33806    33807 1
   34981    33807    33935 1
   34982    33809    33810 1
   34983    33809    33829 1
   34984    33809    33830 1
   34985    33810    33811 1
   34986    33810    33821 1
   34987    33810    33831 1
   34988    33811    33812 1
   34989    33811    33832 1
   34990    33811    33833 1
   34991    33812    33813 1
   34992    33812    33834 1
   34993    33812    33835 1
   34994    33813    33814 1
   34995    33813    33836 1
   34996    33813    33837 1
   34997    33814    33815 1
   34998    33814    33838 1
   34999    33814    33839 1
   35000    33815    33816 1
   35001    33815    33840 1
   35002    33815    33841 1
   35003    33816    33817 1
   35004    33816    33842 1
   35005    33816    33843 1
   35006    33817    33818 1
   35007    33817    33844 1
   35008    33817    33845 1
   35009    33818    33819 1
   35010    33818    33846 1
   35011    33818    33847 1
   35012    33819    33820 1
   35013    33819    33848 1
   35014    33819    33849 1
   35015    33820    33850 1
   35016    33820    33851 1
   35017    33820    33852 1
   35018    33821    33822 1
   35019    33821    33853 1
   35020    33821    33854 1
   35021    33822    33823 1
   35022    33822    33855 1
   35023    33822    33856 1
   35024    33823    33824 1
   35025    33823    33857 1
   35026    33823    33858 1
   35027    33824    33825 1
   35028    33824    33859 1
   35029    33824    33860 1
   35030    33825    33826 1
   35031    33825    33861 1
   35032    33825    33862 1
   35033    33826    33827 1
   35034    33826    33863 1
   35035    33826    33864 1
   35036    33827    33828 1
   35037    33827    33865 1
   35038    33827    33866 1
   35039    33828    33867 1
   35040    33828    33868 1
   35041    33828    33869 1
   35042    33870    33871 1
   35043    33870    33890 1
   35044    33870    33891 1
   35045    33871    33872 1
   35046    33871    33882 1
   35047    33871    33892 1
   35048    33872    33873 1
   35049    33872    33893 1
   35050    33872    33894 1
   35051    33873    33874 1
   35052    33873    33895 1
   35053    33873    33896 1
   35054    33874    33875 1
   35055    33874    33897 1
   35056    33874    33898 1
   35057    33875    33876 1
   35058    33875    33899 1
   35059    33875    33900 1
   35060    33876    33877 1
   35061    33876    33901 1
   35062    33876    33902 1
   35063    33877    33878 1
   35064    33877    33903 1
   35065    33877    33904 1
   35066    33878    33879 1
   35067    33878    33905 1
   35068    33878    33906 1
   35069    33879    33880 1
   35070    33879    33907 1
   35071    33879    33908 1
   35072    33880    33881 1
   35073    33880    33909 1
   35074    33880    33910 1
   35075    33881    33911 1
   35076    33881    33912 1
   35077    33881    33913 1
   35078    33882    33883 1
   35079    33882    33914 1
   35080    33882    33915 1
   35081    33883    33884 1
   35082    33883    33916 1
   35083    33883    33917 1
   35084    33884    33885 1
   35085    33884    33918 1
   35086    33884    33919 1
   35087    33885    33886 1
   35088    33885    33920 1
   35089    33885    33921 1
   35090    33886    33887 1
   35091    33886    33922 1
   35092    33886    33923 1
   35093    33887    33888 1
   35094    33887    33924 1
   35095    33887    33925 1
   35096    33888    33889 1
   35097    33888    33926 1
   35098    33888    33927 1
   35099    33889    33928 1
   35100    33889    33929 1
   35101    33889    33930 1
   35102    33931    33932 1
   35103    33931    33938 1
   35104    33931    33954 1
   35105    33931    34015 1
   35106    33932    33933 1
   35107    33932    33936 1
   35108    33933    33934 1
   35109    33933    33937 1
   35110    33934    33935 1
   35111    33935    33936 1
   35112    33936    33942 1
   35113    33937    33938 1
   35114    33937    33941 1
   35115    33938    33939 1
   35116    33939    33940 1
   35117    33939    33943 1
   35118    33940    33941 1
   35119    33940    33946 1
   35120    33944    33945 1
   35121    33944    33952 1
   35122    33945    33946 1
   35123    33945    33953 1
   35124    33946    33947 1
   35125    33947    33948 1
   35126    33947    33951 1
   35127    33948    33949 1
   35128    33949    33950 1
   35129    33950    33951 1
   35130    33951    33952 1
   35131    33952    34080 1
   35132    33954    33955 1
   35133    33954    33974 1
   35134    33954    33975 1
   35135    33955    33956 1
   35136    33955    33966 1
   35137    33955    33976 1
   35138    33956    33957 1
   35139    33956    33977 1
   35140    33956    33978 1
   35141    33957    33958 1
   35142    33957    33979 1
   35143    33957    33980 1
   35144    33958    33959 1
   35145    33958    33981 1
   35146    33958    33982 1
   35147    33959    33960 1
   35148    33959    33983 1
   35149    33959    33984 1
   35150    33960    33961 1
   35151    33960    33985 1
   35152    33960    33986 1
   35153    33961    33962 1
   35154    33961    33987 1
   35155    33961    33988 1
   35156    33962    33963 1
   35157    33962    33989 1
   35158    33962    33990 1
   35159    33963    33964 1
   35160    33963    33991 1
   35161    33963    33992 1
   35162    33964    33965 1
   35163    33964    33993 1
   35164    33964    33994 1
   35165    33965    33995 1
   35166    33965    33996 1
   35167    33965    33997 1
   35168    33966    33967 1
   35169    33966    33998 1
   35170    33966    33999 1
   35171    33967    33968 1
   35172    33967    34000 1
   35173    33967    34001 1
   35174    33968    33969 1
   35175    33968    34002 1
   35176    33968    34003 1
   35177    33969    33970 1
   35178    33969    34004 1
   35179    33969    34005 1
   35180    33970    33971 1
   35181    33970    34006 1
   35182    33970    34007 1
   35183    33971    33972 1
   35184    33971    34008 1
   35185    33971    34009 1
   35186    33972    33973 1
   35187    33972    34010 1
   35188    33972    34011 1
   35189    33973    34012 1
   35190    33973    34013 1
   35191    33973    34014 1
   35192    34015    34016 1
   35193    34015    34035 1
   35194    34015    34036 1
   35195    34016    34017 1
   35196    34016    34027 1
   35197    34016    34037 1
   35198    34017    34018 1
   35199    34017    34038 1
   35200    34017    34039 1
   35201    34018    34019 1
   35202    34018    34040 1
   35203    34018    34041 1
   35204    34019    34020 1
   35205    34019    34042 1
   35206    34019    34043 1
   35207    34020    34021 1
   35208    34020    34044 1
   35209    34020    34045 1
   35210    34021    34022 1
   35211    34021    34046 1
   35212    34021    34047 1
   35213    34022    34023 1
   35214    34022    34048 1
   35215    34022    34049 1
   35216    34023    34024 1
   35217    34023    34050 1
   35218    34023    34051 1
   35219    34024    34025 1
   35220    34024    34052 1
   35221    34024    34053 1
   35222    34025    34026 1
   35223    34025    34054 1
   35224    34025    34055 1
   35225    34026    34056 1
   35226    34026    34057 1
   35227    34026    34058 1
   35228    34027    34028 1
   35229    34027    34059 1
   35230    34027    34060 1
   35231    34028    34029 1
   35232    34028    34061 1
   35233    34028    34062 1
   35234    34029    34030 1
   35235    34029    34063 1
   35236    34029    34064 1
   35237    34030    34031 1
   35238    34030    34065 1
   35239    34030    34066 1
   35240    34031    34032 1
   35241    34031    34067 1
   35242    34031    34068 1
   35243    34032    34033 1
   35244    34032    34069 1
   35245    34032    34070 1
   35246    34033    34034 1
   35247    34033    34071 1
   35248    34033    34072 1
   35249    34034    34073 1
   35250    34034    34074 1
   35251    34034    34075 1
   35252    34076    34077 1
   35253    34076    34083 1
   35254    34076    34099 1
   35255    34076    34160 1
   35256    34077    34078 1
   35257    34077    34081 1
   35258    34078    34079 1
   35259    34078    34082 1
   35260    34079    34080 1
   35261    34080    34081 1
   35262    34081    34087 1
   35263    34082    34083 1
   35264    34082    34086 1
   35265    34083    34084 1
   35266    34084    34085 1
   35267    34084    34088 1
   35268    34085    34086 1
   35269    34085    34091 1
   35270    34089    34090 1
   35271    34089    34097 1
   35272    34090    34091 1
   35273    34090    34098 1
   35274    34091    34092 1
   35275    34092    34093 1
   35276    34092    34096 1
   35277    34093    34094 1
   35278    34094    34095 1
   35279    34095    34096 1
   35280    34096    34097 1
   35281    34097    34225 1
   35282    34099    34100 1
   35283    34099    34119 1
   35284    34099    34120 1
   35285    34100    34101 1
   35286    34100    34111 1
   35287    34100    34121 1
   35288    34101    34102 1
   35289    34101    34122 1
   35290    34101    34123 1
   35291    34102    34103 1
   35292    34102    34124 1
   35293    34102    34125 1
   35294    34103    34104 1
   35295    34103    34126 1
   35296    34103    34127 1
   35297    34104    34105 1
   35298    34104    34128 1
   35299    34104    34129 1
   35300    34105    34106 1
   35301    34105    34130 1
   35302    34105    34131 1
   35303    34106    34107 1
   35304    34106    34132 1
   35305    34106    34133 1
   35306    34107    34108 1
   35307    34107    34134 1
   35308    34107    34135 1
   35309    34108    34109 1
   35310    34108    34136 1
   35311    34108    34137 1
   35312    34109    34110 1
   35313    34109    34138 1
   35314    34109    34139 1
   35315    34110    34140 1
   35316    34110    34141 1
   35317    34110    34142 1
   35318    34111    34112 1
   35319    34111    34143 1
   35320    34111    34144 1
   35321    34112    34113 1
   35322    34112    34145 1
   35323    34112    34146 1
   35324    34113    34114 1
   35325    34113    34147 1
   35326    34113    34148 1
   35327    34114    34115 1
   35328    34114    34149 1
   35329    34114    34150 1
   35330    34115    34116 1
   35331    34115    34151 1
   35332    34115    34152 1
   35333    34116    34117 1
   35334    34116    34153 1
   35335    34116    34154 1
   35336    34117    34118 1
   35337    34117    34155 1
   35338    34117    34156 1
   35339    34118    34157 1
   35340    34118    34158 1
   35341    34118    34159 1
   35342    34160    34161 1
   35343    34160    34180 1
   35344    34160    34181 1
   35345    34161    34162 1
   35346    34161    34172 1
   35347    34161    34182 1
   35348    34162    34163 1
   35349    34162    34183 1
   35350    34162    34184 1
   35351    34163    34164 1
   35352    34163    34185 1
   35353    34163    34186 1
   35354    34164    34165 1
   35355    34164    34187 1
   35356    34164    34188 1
   35357    34165    34166 1
   35358    34165    34189 1
   35359    34165    34190 1
   35360    34166    34167 1
   35361    34166    34191 1
   35362    34166    34192 1
   35363    34167    34168 1
   35364    34167    34193 1
   35365    34167    34194 1
   35366    34168    34169 1
   35367    34168    34195 1
   35368    34168    34196 1
   35369    34169    34170 1
   35370    34169    34197 1
   35371    34169    34198 1
   35372    34170    34171 1
   35373    34170    34199 1
   35374    34170    34200 1
   35375    34171    34201 1
   35376    34171    34202 1
   35377    34171    34203 1
   35378    34172    34173 1
   35379    34172    34204 1
   35380    34172    34205 1
   35381    34173    34174 1
   35382    34173    34206 1
   35383    34173    34207 1
   35384    34174    34175 1
   35385    34174    34208 1
   35386    34174    34209 1
   35387    34175    34176 1
   35388    34175    34210 1
   35389    34175    34211 1
   35390    34176    34177 1
   35391    34176    34212 1
   35392    34176    34213 1
   35393    34177    34178 1
   35394    34177    34214 1
   35395    34177    34215 1
   35396    34178    34179 1
   35397    34178    34216 1
   35398    34178    34217 1
   35399    34179    34218 1
   35400    34179    34219 1
   35401    34179    34220 1
   35402    34221    34222 1
   35403    34221    34228 1
   35404    34221    34244 1
   35405    34221    34305 1
   35406    34222    34223 1
   35407    34222    34226 1
   35408    34223    34224 1
   35409    34223    34227 1
   35410    34224    34225 1
   35411    34225    34226 1
   35412    34226    34232 1
   35413    34227    34228 1
   35414    34227    34231 1
   35415    34228    34229 1
   35416    34229    34230 1
   35417    34229    34233 1
   35418    34230    34231 1
   35419    34230    34236 1
   35420    34234    34235 1
   35421    34234    34242 1
   35422    34235    34236 1
   35423    34235    34243 1
   35424    34236    34237 1
   35425    34237    34238 1
   35426    34237    34241 1
   35427    34238    34239 1
   35428    34239    34240 1
   35429    34240    34241 1
   35430    34241    34242 1
   35431    34242    34370 1
   35432    34244    34245 1
   35433    34244    34264 1
   35434    34244    34265 1
   35435    34245    34246 1
   35436    34245    34256 1
   35437    34245    34266 1
   35438    34246    34247 1
   35439    34246    34267 1
   35440    34246    34268 1
   35441    34247    34248 1
   35442    34247    34269 1
   35443    34247    34270 1
   35444    34248    34249 1
   35445    34248    34271 1
   35446    34248    34272 1
   35447    34249    34250 1
   35448    34249    34273 1
   35449    34249    34274 1
   35450    34250    34251 1
   35451    34250    34275 1
   35452    34250    34276 1
   35453    34251    34252 1
   35454    34251    34277 1
   35455    34251    34278 1
   35456    34252    34253 1
   35457    34252    34279 1
   35458    34252    34280 1
   35459    34253    34254 1
   35460    34253    34281 1
   35461    34253    34282 1
   35462    34254    34255 1
   35463    34254    34283 1
   35464    34254    34284 1
   35465    34255    34285 1
   35466    34255    34286 1
   35467    34255    34287 1
   35468    34256    34257 1
   35469    34256    34288 1
   35470    34256    34289 1
   35471    34257    34258 1
   35472    34257    34290 1
   35473    34257    34291 1
   35474    34258    34259 1
   35475    34258    34292 1
   35476    34258    34293 1
   35477    34259    34260 1
   35478    34259    34294 1
   35479    34259    34295 1
   35480    34260    34261 1
   35481    34260    34296 1
   35482    34260    34297 1
   35483    34261    34262 1
   35484    34261    34298 1
   35485    34261    34299 1
   35486    34262    34263 1
   35487    34262    34300 1
   35488    34262    34301 1
   35489    34263    34302 1
   35490    34263    34303 1
   35491    34263    34304 1
   35492    34305    34306 1
   35493    34305    34325 1
   35494    34305    34326 1
   35495    34306    34307 1
   35496    34306    34317 1
   35497    34306    34327 1
   35498    34307    34308 1
   35499    34307    34328 1
   35500    34307    34329 1
   35501    34308    34309 1
   35502    34308    34330 1
   35503    34308    34331 1
   35504    34309    34310 1
   35505    34309    34332 1
   35506    34309    34333 1
   35507    34310    34311 1
   35508    34310    34334 1
   35509    34310    34335 1
   35510    34311    34312 1
   35511    34311    34336 1
   35512    34311    34337 1
   35513    34312    34313 1
   35514    34312    34338 1
   35515    34312    34339 1
   35516    34313    34314 1
   35517    34313    34340 1
   35518    34313    34341 1
   35519    34314    34315 1
   35520    34314    34342 1
   35521    34314    34343 1
   35522    34315    34316 1
   35523    34315    34344 1
   35524    34315    34345 1
   35525    34316    34346 1
   35526    34316    34347 1
   35527    34316    34348 1
   35528    34317    34318 1
   35529    34317    34349 1
   35530    34317    34350 1
   35531    34318    34319 1
   35532    34318    34351 1
   35533    34318    34352 1
   35534    34319    34320 1
   35535    34319    34353 1
   35536    34319    34354 1
   35537    34320    34321 1
   35538    34320    34355 1
   35539    34320    34356 1
   35540    34321    34322 1
   35541    34321    34357 1
   35542    34321    34358 1
   35543    34322    34323 1
   35544    34322    34359 1
   35545    34322    34360 1
   35546    34323    34324 1
   35547    34323    34361 1
   35548    34323    34362 1
   35549    34324    34363 1
   35550    34324    34364 1
   35551    34324    34365 1
   35552    34366    34367 1
   35553    34366    34373 1
   35554    34366    34389 1
   35555    34366    34450 1
   35556    34367    34368 1
   35557    34367    34371 1
   35558    34368    34369 1
   35559    34368    34372 1
   35560    34369    34370 1
   35561    34370    34371 1
   35562    34371    34377 1
   35563    34372    34373 1
   35564    34372    34376 1
   35565    34373    34374 1
   35566    34374    34375 1
   35567    34374    34378 1
   35568    34375    34376 1
   35569    34375    34381 1
   35570    34379    34380 1
   35571    34379    34387 1
   35572    34380    34381 1
   35573    34380    34388 1
   35574    34381    34382 1
   35575    34382    34383 1
   35576    34382    34386 1
   35577    34383    34384 1
   35578    34384    34385 1
   35579    34385    34386 1
   35580    34386    34387 1
   35581    34387    34515 1
   35582    34389    34390 1
   35583    34389    34409 1
   35584    34389    34410 1
   35585    34390    34391 1
   35586    34390    34401 1
   35587    34390    34411 1
   35588    34391    34392 1
   35589    34391    34412 1
   35590    34391    34413 1
   35591    34392    34393 1
   35592    34392    34414 1
   35593    34392    34415 1
   35594    34393    34394 1
   35595    34393    34416 1
   35596    34393    34417 1
   35597    34394    34395 1
   35598    34394    34418 1
   35599    34394    34419 1
   35600    34395    34396 1
   35601    34395    34420 1
   35602    34395    34421 1
   35603    34396    34397 1
   35604    34396    34422 1
   35605    34396    34423 1
   35606    34397    34398 1
   35607    34397    34424 1
   35608    34397    34425 1
   35609    34398    34399 1
   35610    34398    34426 1
   35611    34398    34427 1
   35612    34399    34400 1
   35613    34399    34428 1
   35614    34399    34429 1
   35615    34400    34430 1
   35616    34400    34431 1
   35617    34400    34432 1
   35618    34401    34402 1
   35619    34401    34433 1
   35620    34401    34434 1
   35621    34402    34403 1
   35622    34402    34435 1
   35623    34402    34436 1
   35624    34403    34404 1
   35625    34403    34437 1
   35626    34403    34438 1
   35627    34404    34405 1
   35628    34404    34439 1
   35629    34404    34440 1
   35630    34405    34406 1
   35631    34405    34441 1
   35632    34405    34442 1
   35633    34406    34407 1
   35634    34406    34443 1
   35635    34406    34444 1
   35636    34407    34408 1
   35637    34407    34445 1
   35638    34407    34446 1
   35639    34408    34447 1
   35640    34408    34448 1
   35641    34408    34449 1
   35642    34450    34451 1
   35643    34450    34470 1
   35644    34450    34471 1
   35645    34451    34452 1
   35646    34451    34462 1
   35647    34451    34472 1
   35648    34452    34453 1
   35649    34452    34473 1
   35650    34452    34474 1
   35651    34453    34454 1
   35652    34453    34475 1
   35653    34453    34476 1
   35654    34454    34455 1
   35655    34454    34477 1
   35656    34454    34478 1
   35657    34455    34456 1
   35658    34455    34479 1
   35659    34455    34480 1
   35660    34456    34457 1
   35661    34456    34481 1
   35662    34456    34482 1
   35663    34457    34458 1
   35664    34457    34483 1
   35665    34457    34484 1
   35666    34458    34459 1
   35667    34458    34485 1
   35668    34458    34486 1
   35669    34459    34460 1
   35670    34459    34487 1
   35671    34459    34488 1
   35672    34460    34461 1
   35673    34460    34489 1
   35674    34460    34490 1
   35675    34461    34491 1
   35676    34461    34492 1
   35677    34461    34493 1
   35678    34462    34463 1
   35679    34462    34494 1
   35680    34462    34495 1
   35681    34463    34464 1
   35682    34463    34496 1
   35683    34463    34497 1
   35684    34464    34465 1
   35685    34464    34498 1
   35686    34464    34499 1
   35687    34465    34466 1
   35688    34465    34500 1
   35689    34465    34501 1
   35690    34466    34467 1
   35691    34466    34502 1
   35692    34466    34503 1
   35693    34467    34468 1
   35694    34467    34504 1
   35695    34467    34505 1
   35696    34468    34469 1
   35697    34468    34506 1
   35698    34468    34507 1
   35699    34469    34508 1
   35700    34469    34509 1
   35701    34469    34510 1
   35702    34511    34512 1
   35703    34511    34518 1
   35704    34511    34534 1
   35705    34511    34595 1
   35706    34512    34513 1
   35707    34512    34516 1
   35708    34513    34514 1
   35709    34513    34517 1
   35710    34514    34515 1
   35711    34515    34516 1
   35712    34516    34522 1
   35713    34517    34518 1
   35714    34517    34521 1
   35715    34518    34519 1
   35716    34519    34520 1
   35717    34519    34523 1
   35718    34520    34521 1
   35719    34520    34526 1
   35720    34524    34525 1
   35721    34524    34532 1
   35722    34525    34526 1
   35723    34525    34533 1
   35724    34526    34527 1
   35725    34527    34528 1
   35726    34527    34531 1
   35727    34528    34529 1
   35728    34529    34530 1
   35729    34530    34531 1
   35730    34531    34532 1
   35731    34532    34660 1
   35732    34534    34535 1
   35733    34534    34554 1
   35734    34534    34555 1
   35735    34535    34536 1
   35736    34535    34546 1
   35737    34535    34556 1
   35738    34536    34537 1
   35739    34536    34557 1
   35740    34536    34558 1
   35741    34537    34538 1
   35742    34537    34559 1
   35743    34537    34560 1
   35744    34538    34539 1
   35745    34538    34561 1
   35746    34538    34562 1
   35747    34539    34540 1
   35748    34539    34563 1
   35749    34539    34564 1
   35750    34540    34541 1
   35751    34540    34565 1
   35752    34540    34566 1
   35753    34541    34542 1
   35754    34541    34567 1
   35755    34541    34568 1
   35756    34542    34543 1
   35757    34542    34569 1
   35758    34542    34570 1
   35759    34543    34544 1
   35760    34543    34571 1
   35761    34543    34572 1
   35762    34544    34545 1
   35763    34544    34573 1
   35764    34544    34574 1
   35765    34545    34575 1
   35766    34545    34576 1
   35767    34545    34577 1
   35768    34546    34547 1
   35769    34546    34578 1
   35770    34546    34579 1
   35771    34547    34548 1
   35772    34547    34580 1
   35773    34547    34581 1
   35774    34548    34549 1
   35775    34548    34582 1
   35776    34548    34583 1
   35777    34549    34550 1
   35778    34549    34584 1
   35779    34549    34585 1
   35780    34550    34551 1
   35781    34550    34586 1
   35782    34550    34587 1
   35783    34551    34552 1
   35784    34551    34588 1
   35785    34551    34589 1
   35786    34552    34553 1
   35787    34552    34590 1
   35788    34552    34591 1
   35789    34553    34592 1
   35790    34553    34593 1
   35791    34553    34594 1
   35792    34595    34596 1
   35793    34595    34615 1
   35794    34595    34616 1
   35795    34596    34597 1
   35796    34596    34607 1
   35797    34596    34617 1
   35798    34597    34598 1
   35799    34597    34618 1
   35800    34597    34619 1
   35801    34598    34599 1
   35802    34598    34620 1
   35803    34598    34621 1
   35804    34599    34600 1
   35805    34599    34622 1
   35806    34599    34623 1
   35807    34600    34601 1
   35808    34600    34624 1
   35809    34600    34625 1
   35810    34601    34602 1
   35811    34601    34626 1
   35812    34601    34627 1
   35813    34602    34603 1
   35814    34602    34628 1
   35815    34602    34629 1
   35816    34603    34604 1
   35817    34603    34630 1
   35818    34603    34631 1
   35819    34604    34605 1
   35820    34604    34632 1
   35821    34604    34633 1
   35822    34605    34606 1
   35823    34605    34634 1
   35824    34605    34635 1
   35825    34606    34636 1
   35826    34606    34637 1
   35827    34606    34638 1
   35828    34607    34608 1
   35829    34607    34639 1
   35830    34607    34640 1
   35831    34608    34609 1
   35832    34608    34641 1
   35833    34608    34642 1
   35834    34609    34610 1
   35835    34609    34643 1
   35836    34609    34644 1
   35837    34610    34611 1
   35838    34610    34645 1
   35839    34610    34646 1
   35840    34611    34612 1
   35841    34611    34647 1
   35842    34611    34648 1
   35843    34612    34613 1
   35844    34612    34649 1
   35845    34612    34650 1
   35846    34613    34614 1
   35847    34613    34651 1
   35848    34613    34652 1
   35849    34614    34653 1
   35850    34614    34654 1
   35851    34614    34655 1
   35852    34656    34657 1
   35853    34656    34663 1
   35854    34656    34679 1
   35855    34656    34740 1
   35856    34657    34658 1
   35857    34657    34661 1
   35858    34658    34659 1
   35859    34658    34662 1
   35860    34659    34660 1
   35861    34660    34661 1
   35862    34661    34667 1
   35863    34662    34663 1
   35864    34662    34666 1
   35865    34663    34664 1
   35866    34664    34665 1
   35867    34664    34668 1
   35868    34665    34666 1
   35869    34665    34671 1
   35870    34669    34670 1
   35871    34669    34677 1
   35872    34670    34671 1
   35873    34670    34678 1
   35874    34671    34672 1
   35875    34672    34673 1
   35876    34672    34676 1
   35877    34673    34674 1
   35878    34674    34675 1
   35879    34675    34676 1
   35880    34676    34677 1
   35881    34677    34805 1
   35882    34679    34680 1
   35883    34679    34699 1
   35884    34679    34700 1
   35885    34680    34681 1
   35886    34680    34691 1
   35887    34680    34701 1
   35888    34681    34682 1
   35889    34681    34702 1
   35890    34681    34703 1
   35891    34682    34683 1
   35892    34682    34704 1
   35893    34682    34705 1
   35894    34683    34684 1
   35895    34683    34706 1
   35896    34683    34707 1
   35897    34684    34685 1
   35898    34684    34708 1
   35899    34684    34709 1
   35900    34685    34686 1
   35901    34685    34710 1
   35902    34685    34711 1
   35903    34686    34687 1
   35904    34686    34712 1
   35905    34686    34713 1
   35906    34687    34688 1
   35907    34687    34714 1
   35908    34687    34715 1
   35909    34688    34689 1
   35910    34688    34716 1
   35911    34688    34717 1
   35912    34689    34690 1
   35913    34689    34718 1
   35914    34689    34719 1
   35915    34690    34720 1
   35916    34690    34721 1
   35917    34690    34722 1
   35918    34691    34692 1
   35919    34691    34723 1
   35920    34691    34724 1
   35921    34692    34693 1
   35922    34692    34725 1
   35923    34692    34726 1
   35924    34693    34694 1
   35925    34693    34727 1
   35926    34693    34728 1
   35927    34694    34695 1
   35928    34694    34729 1
   35929    34694    34730 1
   35930    34695    34696 1
   35931    34695    34731 1
   35932    34695    34732 1
   35933    34696    34697 1
   35934    34696    34733 1
   35935    34696    34734 1
   35936    34697    34698 1
   35937    34697    34735 1
   35938    34697    34736 1
   35939    34698    34737 1
   35940    34698    34738 1
   35941    34698    34739 1
   35942    34740    34741 1
   35943    34740    34760 1
   35944    34740    34761 1
   35945    34741    34742 1
   35946    34741    34752 1
   35947    34741    34762 1
   35948    34742    34743 1
   35949    34742    34763 1
   35950    34742    34764 1
   35951    34743    34744 1
   35952    34743    34765 1
   35953    34743    34766 1
   35954    34744    34745 1
   35955    34744    34767 1
   35956    34744    34768 1
   35957    34745    34746 1
   35958    34745    34769 1
   35959    34745    34770 1
   35960    34746    34747 1
   35961    34746    34771 1
   35962    34746    34772 1
   35963    34747    34748 1
   35964    34747    34773 1
   35965    34747    34774 1
   35966    34748    34749 1
   35967    34748    34775 1
   35968    34748    34776 1
   35969    34749    34750 1
   35970    34749    34777 1
   35971    34749    34778 1
   35972    34750    34751 1
   35973    34750    34779 1
   35974    34750    34780 1
   35975    34751    34781 1
   35976    34751    34782 1
   35977    34751    34783 1
   35978    34752    34753 1
   35979    34752    34784 1
   35980    34752    34785 1
   35981    34753    34754 1
   35982    34753    34786 1
   35983    34753    34787 1
   35984    34754    34755 1
   35985    34754    34788 1
   35986    34754    34789 1
   35987    34755    34756 1
   35988    34755    34790 1
   35989    34755    34791 1
   35990    34756    34757 1
   35991    34756    34792 1
   35992    34756    34793 1
   35993    34757    34758 1
   35994    34757    34794 1
   35995    34757    34795 1
   35996    34758    34759 1
   35997    34758    34796 1
   35998    34758    34797 1
   35999    34759    34798 1
   36000    34759    34799 1
   36001    34759    34800 1
   36002    34801    34802 1
   36003    34801    34808 1
   36004    34801    34824 1
   36005    34801    34885 1
   36006    34802    34803 1
   36007    34802    34806 1
   36008    34803    34804 1
   36009    34803    34807 1
   36010    34804    34805 1
   36011    34805    34806 1
   36012    34806    34812 1
   36013    34807    34808 1
   36014    34807    34811 1
   36015    34808    34809 1
   36016    34809    34810 1
   36017    34809    34813 1
   36018    34810    34811 1
   36019    34810    34816 1
   36020    34814    34815 1
   36021    34814    34822 1
   36022    34815    34816 1
   36023    34815    34823 1
   36024    34816    34817 1
   36025    34817    34818 1
   36026    34817    34821 1
   36027    34818    34819 1
   36028    34819    34820 1
   36029    34820    34821 1
   36030    34821    34822 1
   36031    34822    34950 1
   36032    34824    34825 1
   36033    34824    34844 1
   36034    34824    34845 1
   36035    34825    34826 1
   36036    34825    34836 1
   36037    34825    34846 1
   36038    34826    34827 1
   36039    34826    34847 1
   36040    34826    34848 1
   36041    34827    34828 1
   36042    34827    34849 1
   36043    34827    34850 1
   36044    34828    34829 1
   36045    34828    34851 1
   36046    34828    34852 1
   36047    34829    34830 1
   36048    34829    34853 1
   36049    34829    34854 1
   36050    34830    34831 1
   36051    34830    34855 1
   36052    34830    34856 1
   36053    34831    34832 1
   36054    34831    34857 1
   36055    34831    34858 1
   36056    34832    34833 1
   36057    34832    34859 1
   36058    34832    34860 1
   36059    34833    34834 1
   36060    34833    34861 1
   36061    34833    34862 1
   36062    34834    34835 1
   36063    34834    34863 1
   36064    34834    34864 1
   36065    34835    34865 1
   36066    34835    34866 1
   36067    34835    34867 1
   36068    34836    34837 1
   36069    34836    34868 1
   36070    34836    34869 1
   36071    34837    34838 1
   36072    34837    34870 1
   36073    34837    34871 1
   36074    34838    34839 1
   36075    34838    34872 1
   36076    34838    34873 1
   36077    34839    34840 1
   36078    34839    34874 1
   36079    34839    34875 1
   36080    34840    34841 1
   36081    34840    34876 1
   36082    34840    34877 1
   36083    34841    34842 1
   36084    34841    34878 1
   36085    34841    34879 1
   36086    34842    34843 1
   36087    34842    34880 1
   36088    34842    34881 1
   36089    34843    34882 1
   36090    34843    34883 1
   36091    34843    34884 1
   36092    34885    34886 1
   36093    34885    34905 1
   36094    34885    34906 1
   36095    34886    34887 1
   36096    34886    34897 1
   36097    34886    34907 1
   36098    34887    34888 1
   36099    34887    34908 1
   36100    34887    34909 1
   36101    34888    34889 1
   36102    34888    34910 1
   36103    34888    34911 1
   36104    34889    34890 1
   36105    34889    34912 1
   36106    34889    34913 1
   36107    34890    34891 1
   36108    34890    34914 1
   36109    34890    34915 1
   36110    34891    34892 1
   36111    34891    34916 1
   36112    34891    34917 1
   36113    34892    34893 1
   36114    34892    34918 1
   36115    34892    34919 1
   36116    34893    34894 1
   36117    34893    34920 1
   36118    34893    34921 1
   36119    34894    34895 1
   36120    34894    34922 1
   36121    34894    34923 1
   36122    34895    34896 1
   36123    34895    34924 1
   36124    34895    34925 1
   36125    34896    34926 1
   36126    34896    34927 1
   36127    34896    34928 1
   36128    34897    34898 1
   36129    34897    34929 1
   36130    34897    34930 1
   36131    34898    34899 1
   36132    34898    34931 1
   36133    34898    34932 1
   36134    34899    34900 1
   36135    34899    34933 1
   36136    34899    34934 1
   36137    34900    34901 1
   36138    34900    34935 1
   36139    34900    34936 1
   36140    34901    34902 1
   36141    34901    34937 1
   36142    34901    34938 1
   36143    34902    34903 1
   36144    34902    34939 1
   36145    34902    34940 1
   36146    34903    34904 1
   36147    34903    34941 1
   36148    34903    34942 1
   36149    34904    34943 1
   36150    34904    34944 1
   36151    34904    34945 1
   36152    34946    34947 1
   36153    34946    34953 1
   36154    34946    34969 1
   36155    34946    35030 1
   36156    34947    34948 1
   36157    34947    34951 1
   36158    34948    34949 1
   36159    34948    34952 1
   36160    34949    34950 1
   36161    34950    34951 1
   36162    34951    34957 1
   36163    34952    34953 1
   36164    34952    34956 1
   36165    34953    34954 1
   36166    34954    34955 1
   36167    34954    34958 1
   36168    34955    34956 1
   36169    34955    34961 1
   36170    34959    34960 1
   36171    34959    34967 1
   36172    34960    34961 1
   36173    34960    34968 1
   36174    34961    34962 1
   36175    34962    34963 1
   36176    34962    34966 1
   36177    34963    34964 1
   36178    34964    34965 1
   36179    34965    34966 1
   36180    34966    34967 1
   36181    34967    35095 1
   36182    34969    34970 1
   36183    34969    34989 1
   36184    34969    34990 1
   36185    34970    34971 1
   36186    34970    34981 1
   36187    34970    34991 1
   36188    34971    34972 1
   36189    34971    34992 1
   36190    34971    34993 1
   36191    34972    34973 1
   36192    34972    34994 1
   36193    34972    34995 1
   36194    34973    34974 1
   36195    34973    34996 1
   36196    34973    34997 1
   36197    34974    34975 1
   36198    34974    34998 1
   36199    34974    34999 1
   36200    34975    34976 1
   36201    34975    35000 1
   36202    34975    35001 1
   36203    34976    34977 1
   36204    34976    35002 1
   36205    34976    35003 1
   36206    34977    34978 1
   36207    34977    35004 1
   36208    34977    35005 1
   36209    34978    34979 1
   36210    34978    35006 1
   36211    34978    35007 1
   36212    34979    34980 1
   36213    34979    35008 1
   36214    34979    35009 1
   36215    34980    35010 1
   36216    34980    35011 1
   36217    34980    35012 1
   36218    34981    34982 1
   36219    34981    35013 1
   36220    34981    35014 1
   36221    34982    34983 1
   36222    34982    35015 1
   36223    34982    35016 1
   36224    34983    34984 1
   36225    34983    35017 1
   36226    34983    35018 1
   36227    34984    34985 1
   36228    34984    35019 1
   36229    34984    35020 1
   36230    34985    34986 1
   36231    34985    35021 1
   36232    34985    35022 1
   36233    34986    34987 1
   36234    34986    35023 1
   36235    34986    35024 1
   36236    34987    34988 1
   36237    34987    35025 1
   36238    34987    35026 1
   36239    34988    35027 1
   36240    34988    35028 1
   36241    34988    35029 1
   36242    35030    35031 1
   36243    35030    35050 1
   36244    35030    35051 1
   36245    35031    35032 1
   36246    35031    35042 1
   36247    35031    35052 1
   36248    35032    35033 1
   36249    35032    35053 1
   36250    35032    35054 1
   36251    35033    35034 1
   36252    35033    35055 1
   36253    35033    35056 1
   36254    35034    35035 1
   36255    35034    35057 1
   36256    35034    35058 1
   36257    35035    35036 1
   36258    35035    35059 1
   36259    35035    35060 1
   36260    35036    35037 1
   36261    35036    35061 1
   36262    35036    35062 1
   36263    35037    35038 1
   36264    35037    35063 1
   36265    35037    35064 1
   36266    35038    35039 1
   36267    35038    35065 1
   36268    35038    35066 1
   36269    35039    35040 1
   36270    35039    35067 1
   36271    35039    35068 1
   36272    35040    35041 1
   36273    35040    35069 1
   36274    35040    35070 1
   36275    35041    35071 1
   36276    35041    35072 1
   36277    35041    35073 1
   36278    35042    35043 1
   36279    35042    35074 1
   36280    35042    35075 1
   36281    35043    35044 1
   36282    35043    35076 1
   36283    35043    35077 1
   36284    35044    35045 1
   36285    35044    35078 1
   36286    35044    35079 1
   36287    35045    35046 1
   36288    35045    35080 1
   36289    35045    35081 1
   36290    35046    35047 1
   36291    35046    35082 1
   36292    35046    35083 1
   36293    35047    35048 1
   36294    35047    35084 1
   36295    35047    35085 1
   36296    35048    35049 1
   36297    35048    35086 1
   36298    35048    35087 1
   36299    35049    35088 1
   36300    35049    35089 1
   36301    35049    35090 1
   36302    35091    35092 1
   36303    35091    35098 1
   36304    35091    35114 1
   36305    35091    35175 1
   36306    35092    35093 1
   36307    35092    35096 1
   36308    35093    35094 1
   36309    35093    35097 1
   36310    35094    35095 1
   36311    35095    35096 1
   36312    35096    35102 1
   36313    35097    35098 1
   36314    35097    35101 1
   36315    35098    35099 1
   36316    35099    35100 1
   36317    35099    35103 1
   36318    35100    35101 1
   36319    35100    35106 1
   36320    35104    35105 1
   36321    35104    35112 1
   36322    35105    35106 1
   36323    35105    35113 1
   36324    35106    35107 1
   36325    35107    35108 1
   36326    35107    35111 1
   36327    35108    35109 1
   36328    35109    35110 1
   36329    35110    35111 1
   36330    35111    35112 1
   36331    35112    35240 1
   36332    35114    35115 1
   36333    35114    35134 1
   36334    35114    35135 1
   36335    35115    35116 1
   36336    35115    35126 1
   36337    35115    35136 1
   36338    35116    35117 1
   36339    35116    35137 1
   36340    35116    35138 1
   36341    35117    35118 1
   36342    35117    35139 1
   36343    35117    35140 1
   36344    35118    35119 1
   36345    35118    35141 1
   36346    35118    35142 1
   36347    35119    35120 1
   36348    35119    35143 1
   36349    35119    35144 1
   36350    35120    35121 1
   36351    35120    35145 1
   36352    35120    35146 1
   36353    35121    35122 1
   36354    35121    35147 1
   36355    35121    35148 1
   36356    35122    35123 1
   36357    35122    35149 1
   36358    35122    35150 1
   36359    35123    35124 1
   36360    35123    35151 1
   36361    35123    35152 1
   36362    35124    35125 1
   36363    35124    35153 1
   36364    35124    35154 1
   36365    35125    35155 1
   36366    35125    35156 1
   36367    35125    35157 1
   36368    35126    35127 1
   36369    35126    35158 1
   36370    35126    35159 1
   36371    35127    35128 1
   36372    35127    35160 1
   36373    35127    35161 1
   36374    35128    35129 1
   36375    35128    35162 1
   36376    35128    35163 1
   36377    35129    35130 1
   36378    35129    35164 1
   36379    35129    35165 1
   36380    35130    35131 1
   36381    35130    35166 1
   36382    35130    35167 1
   36383    35131    35132 1
   36384    35131    35168 1
   36385    35131    35169 1
   36386    35132    35133 1
   36387    35132    35170 1
   36388    35132    35171 1
   36389    35133    35172 1
   36390    35133    35173 1
   36391    35133    35174 1
   36392    35175    35176 1
   36393    35175    35195 1
   36394    35175    35196 1
   36395    35176    35177 1
   36396    35176    35187 1
   36397    35176    35197 1
   36398    35177    35178 1
   36399    35177    35198 1
   36400    35177    35199 1
   36401    35178    35179 1
   36402    35178    35200 1
   36403    35178    35201 1
   36404    35179    35180 1
   36405    35179    35202 1
   36406    35179    35203 1
   36407    35180    35181 1
   36408    35180    35204 1
   36409    35180    35205 1
   36410    35181    35182 1
   36411    35181    35206 1
   36412    35181    35207 1
   36413    35182    35183 1
   36414    35182    35208 1
   36415    35182    35209 1
   36416    35183    35184 1
   36417    35183    35210 1
   36418    35183    35211 1
   36419    35184    35185 1
   36420    35184    35212 1
   36421    35184    35213 1
   36422    35185    35186 1
   36423    35185    35214 1
   36424    35185    35215 1
   36425    35186    35216 1
   36426    35186    35217 1
   36427    35186    35218 1
   36428    35187    35188 1
   36429    35187    35219 1
   36430    35187    35220 1
   36431    35188    35189 1
   36432    35188    35221 1
   36433    35188    35222 1
   36434    35189    35190 1
   36435    35189    35223 1
   36436    35189    35224 1
   36437    35190    35191 1
   36438    35190    35225 1
   36439    35190    35226 1
   36440    35191    35192 1
   36441    35191    35227 1
   36442    35191    35228 1
   36443    35192    35193 1
   36444    35192    35229 1
   36445    35192    35230 1
   36446    35193    35194 1
   36447    35193    35231 1
   36448    35193    35232 1
   36449    35194    35233 1
   36450    35194    35234 1
   36451    35194    35235 1
   36452    35236    35237 1
   36453    35236    35243 1
   36454    35236    35259 1
   36455    35236    35320 1
   36456    35237    35238 1
   36457    35237    35241 1
   36458    35238    35239 1
   36459    35238    35242 1
   36460    35239    35240 1
   36461    35240    35241 1
   36462    35241    35247 1
   36463    35242    35243 1
   36464    35242    35246 1
   36465    35243    35244 1
   36466    35244    35245 1
   36467    35244    35248 1
   36468    35245    35246 1
   36469    35245    35251 1
   36470    35249    35250 1
   36471    35249    35257 1
   36472    35250    35251 1
   36473    35250    35258 1
   36474    35251    35252 1
   36475    35252    35253 1
   36476    35252    35256 1
   36477    35253    35254 1
   36478    35254    35255 1
   36479    35255    35256 1
   36480    35256    35257 1
   36481    35257    35385 1
   36482    35259    35260 1
   36483    35259    35279 1
   36484    35259    35280 1
   36485    35260    35261 1
   36486    35260    35271 1
   36487    35260    35281 1
   36488    35261    35262 1
   36489    35261    35282 1
   36490    35261    35283 1
   36491    35262    35263 1
   36492    35262    35284 1
   36493    35262    35285 1
   36494    35263    35264 1
   36495    35263    35286 1
   36496    35263    35287 1
   36497    35264    35265 1
   36498    35264    35288 1
   36499    35264    35289 1
   36500    35265    35266 1
   36501    35265    35290 1
   36502    35265    35291 1
   36503    35266    35267 1
   36504    35266    35292 1
   36505    35266    35293 1
   36506    35267    35268 1
   36507    35267    35294 1
   36508    35267    35295 1
   36509    35268    35269 1
   36510    35268    35296 1
   36511    35268    35297 1
   36512    35269    35270 1
   36513    35269    35298 1
   36514    35269    35299 1
   36515    35270    35300 1
   36516    35270    35301 1
   36517    35270    35302 1
   36518    35271    35272 1
   36519    35271    35303 1
   36520    35271    35304 1
   36521    35272    35273 1
   36522    35272    35305 1
   36523    35272    35306 1
   36524    35273    35274 1
   36525    35273    35307 1
   36526    35273    35308 1
   36527    35274    35275 1
   36528    35274    35309 1
   36529    35274    35310 1
   36530    35275    35276 1
   36531    35275    35311 1
   36532    35275    35312 1
   36533    35276    35277 1
   36534    35276    35313 1
   36535    35276    35314 1
   36536    35277    35278 1
   36537    35277    35315 1
   36538    35277    35316 1
   36539    35278    35317 1
   36540    35278    35318 1
   36541    35278    35319 1
   36542    35320    35321 1
   36543    35320    35340 1
   36544    35320    35341 1
   36545    35321    35322 1
   36546    35321    35332 1
   36547    35321    35342 1
   36548    35322    35323 1
   36549    35322    35343 1
   36550    35322    35344 1
   36551    35323    35324 1
   36552    35323    35345 1
   36553    35323    35346 1
   36554    35324    35325 1
   36555    35324    35347 1
   36556    35324    35348 1
   36557    35325    35326 1
   36558    35325    35349 1
   36559    35325    35350 1
   36560    35326    35327 1
   36561    35326    35351 1
   36562    35326    35352 1
   36563    35327    35328 1
   36564    35327    35353 1
   36565    35327    35354 1
   36566    35328    35329 1
   36567    35328    35355 1
   36568    35328    35356 1
   36569    35329    35330 1
   36570    35329    35357 1
   36571    35329    35358 1
   36572    35330    35331 1
   36573    35330    35359 1
   36574    35330    35360 1
   36575    35331    35361 1
   36576    35331    35362 1
   36577    35331    35363 1
   36578    35332    35333 1
   36579    35332    35364 1
   36580    35332    35365 1
   36581    35333    35334 1
   36582    35333    35366 1
   36583    35333    35367 1
   36584    35334    35335 1
   36585    35334    35368 1
   36586    35334    35369 1
   36587    35335    35336 1
   36588    35335    35370 1
   36589    35335    35371 1
   36590    35336    35337 1
   36591    35336    35372 1
   36592    35336    35373 1
   36593    35337    35338 1
   36594    35337    35374 1
   36595    35337    35375 1
   36596    35338    35339 1
   36597    35338    35376 1
   36598    35338    35377 1
   36599    35339    35378 1
   36600    35339    35379 1
   36601    35339    35380 1
   36602    35381    35382 1
   36603    35381    35388 1
   36604    35381    35404 1
   36605    35381    35465 1
   36606    35382    35383 1
   36607    35382    35386 1
   36608    35383    35384 1
   36609    35383    35387 1
   36610    35384    35385 1
   36611    35385    35386 1
   36612    35386    35392 1
   36613    35387    35388 1
   36614    35387    35391 1
   36615    35388    35389 1
   36616    35389    35390 1
   36617    35389    35393 1
   36618    35390    35391 1
   36619    35390    35396 1
   36620    35394    35395 1
   36621    35394    35402 1
   36622    35395    35396 1
   36623    35395    35403 1
   36624    35396    35397 1
   36625    35397    35398 1
   36626    35397    35401 1
   36627    35398    35399 1
   36628    35399    35400 1
   36629    35400    35401 1
   36630    35401    35402 1
   36631    35402    35530 1
   36632    35404    35405 1
   36633    35404    35424 1
   36634    35404    35425 1
   36635    35405    35406 1
   36636    35405    35416 1
   36637    35405    35426 1
   36638    35406    35407 1
   36639    35406    35427 1
   36640    35406    35428 1
   36641    35407    35408 1
   36642    35407    35429 1
   36643    35407    35430 1
   36644    35408    35409 1
   36645    35408    35431 1
   36646    35408    35432 1
   36647    35409    35410 1
   36648    35409    35433 1
   36649    35409    35434 1
   36650    35410    35411 1
   36651    35410    35435 1
   36652    35410    35436 1
   36653    35411    35412 1
   36654    35411    35437 1
   36655    35411    35438 1
   36656    35412    35413 1
   36657    35412    35439 1
   36658    35412    35440 1
   36659    35413    35414 1
   36660    35413    35441 1
   36661    35413    35442 1
   36662    35414    35415 1
   36663    35414    35443 1
   36664    35414    35444 1
   36665    35415    35445 1
   36666    35415    35446 1
   36667    35415    35447 1
   36668    35416    35417 1
   36669    35416    35448 1
   36670    35416    35449 1
   36671    35417    35418 1
   36672    35417    35450 1
   36673    35417    35451 1
   36674    35418    35419 1
   36675    35418    35452 1
   36676    35418    35453 1
   36677    35419    35420 1
   36678    35419    35454 1
   36679    35419    35455 1
   36680    35420    35421 1
   36681    35420    35456 1
   36682    35420    35457 1
   36683    35421    35422 1
   36684    35421    35458 1
   36685    35421    35459 1
   36686    35422    35423 1
   36687    35422    35460 1
   36688    35422    35461 1
   36689    35423    35462 1
   36690    35423    35463 1
   36691    35423    35464 1
   36692    35465    35466 1
   36693    35465    35485 1
   36694    35465    35486 1
   36695    35466    35467 1
   36696    35466    35477 1
   36697    35466    35487 1
   36698    35467    35468 1
   36699    35467    35488 1
   36700    35467    35489 1
   36701    35468    35469 1
   36702    35468    35490 1
   36703    35468    35491 1
   36704    35469    35470 1
   36705    35469    35492 1
   36706    35469    35493 1
   36707    35470    35471 1
   36708    35470    35494 1
   36709    35470    35495 1
   36710    35471    35472 1
   36711    35471    35496 1
   36712    35471    35497 1
   36713    35472    35473 1
   36714    35472    35498 1
   36715    35472    35499 1
   36716    35473    35474 1
   36717    35473    35500 1
   36718    35473    35501 1
   36719    35474    35475 1
   36720    35474    35502 1
   36721    35474    35503 1
   36722    35475    35476 1
   36723    35475    35504 1
   36724    35475    35505 1
   36725    35476    35506 1
   36726    35476    35507 1
   36727    35476    35508 1
   36728    35477    35478 1
   36729    35477    35509 1
   36730    35477    35510 1
   36731    35478    35479 1
   36732    35478    35511 1
   36733    35478    35512 1
   36734    35479    35480 1
   36735    35479    35513 1
   36736    35479    35514 1
   36737    35480    35481 1
   36738    35480    35515 1
   36739    35480    35516 1
   36740    35481    35482 1
   36741    35481    35517 1
   36742    35481    35518 1
   36743    35482    35483 1
   36744    35482    35519 1
   36745    35482    35520 1
   36746    35483    35484 1
   36747    35483    35521 1
   36748    35483    35522 1
   36749    35484    35523 1
   36750    35484    35524 1
   36751    35484    35525 1
   36752    35526    35527 1
   36753    35526    35533 1
   36754    35526    35549 1
   36755    35526    35610 1
   36756    35527    35528 1
   36757    35527    35531 1
   36758    35528    35529 1
   36759    35528    35532 1
   36760    35529    35530 1
   36761    35530    35531 1
   36762    35531    35537 1
   36763    35532    35533 1
   36764    35532    35536 1
   36765    35533    35534 1
   36766    35534    35535 1
   36767    35534    35538 1
   36768    35535    35536 1
   36769    35535    35541 1
   36770    35539    35540 1
   36771    35539    35547 1
   36772    35540    35541 1
   36773    35540    35548 1
   36774    35541    35542 1
   36775    35542    35543 1
   36776    35542    35546 1
   36777    35543    35544 1
   36778    35544    35545 1
   36779    35545    35546 1
   36780    35546    35547 1
   36781    35547    35675 1
   36782    35549    35550 1
   36783    35549    35569 1
   36784    35549    35570 1
   36785    35550    35551 1
   36786    35550    35561 1
   36787    35550    35571 1
   36788    35551    35552 1
   36789    35551    35572 1
   36790    35551    35573 1
   36791    35552    35553 1
   36792    35552    35574 1
   36793    35552    35575 1
   36794    35553    35554 1
   36795    35553    35576 1
   36796    35553    35577 1
   36797    35554    35555 1
   36798    35554    35578 1
   36799    35554    35579 1
   36800    35555    35556 1
   36801    35555    35580 1
   36802    35555    35581 1
   36803    35556    35557 1
   36804    35556    35582 1
   36805    35556    35583 1
   36806    35557    35558 1
   36807    35557    35584 1
   36808    35557    35585 1
   36809    35558    35559 1
   36810    35558    35586 1
   36811    35558    35587 1
   36812    35559    35560 1
   36813    35559    35588 1
   36814    35559    35589 1
   36815    35560    35590 1
   36816    35560    35591 1
   36817    35560    35592 1
   36818    35561    35562 1
   36819    35561    35593 1
   36820    35561    35594 1
   36821    35562    35563 1
   36822    35562    35595 1
   36823    35562    35596 1
   36824    35563    35564 1
   36825    35563    35597 1
   36826    35563    35598 1
   36827    35564    35565 1
   36828    35564    35599 1
   36829    35564    35600 1
   36830    35565    35566 1
   36831    35565    35601 1
   36832    35565    35602 1
   36833    35566    35567 1
   36834    35566    35603 1
   36835    35566    35604 1
   36836    35567    35568 1
   36837    35567    35605 1
   36838    35567    35606 1
   36839    35568    35607 1
   36840    35568    35608 1
   36841    35568    35609 1
   36842    35610    35611 1
   36843    35610    35630 1
   36844    35610    35631 1
   36845    35611    35612 1
   36846    35611    35622 1
   36847    35611    35632 1
   36848    35612    35613 1
   36849    35612    35633 1
   36850    35612    35634 1
   36851    35613    35614 1
   36852    35613    35635 1
   36853    35613    35636 1
   36854    35614    35615 1
   36855    35614    35637 1
   36856    35614    35638 1
   36857    35615    35616 1
   36858    35615    35639 1
   36859    35615    35640 1
   36860    35616    35617 1
   36861    35616    35641 1
   36862    35616    35642 1
   36863    35617    35618 1
   36864    35617    35643 1
   36865    35617    35644 1
   36866    35618    35619 1
   36867    35618    35645 1
   36868    35618    35646 1
   36869    35619    35620 1
   36870    35619    35647 1
   36871    35619    35648 1
   36872    35620    35621 1
   36873    35620    35649 1
   36874    35620    35650 1
   36875    35621    35651 1
   36876    35621    35652 1
   36877    35621    35653 1
   36878    35622    35623 1
   36879    35622    35654 1
   36880    35622    35655 1
   36881    35623    35624 1
   36882    35623    35656 1
   36883    35623    35657 1
   36884    35624    35625 1
   36885    35624    35658 1
   36886    35624    35659 1
   36887    35625    35626 1
   36888    35625    35660 1
   36889    35625    35661 1
   36890    35626    35627 1
   36891    35626    35662 1
   36892    35626    35663 1
   36893    35627    35628 1
   36894    35627    35664 1
   36895    35627    35665 1
   36896    35628    35629 1
   36897    35628    35666 1
   36898    35628    35667 1
   36899    35629    35668 1
   36900    35629    35669 1
   36901    35629    35670 1
   36902    35671    35672 1
   36903    35671    35678 1
   36904    35671    35694 1
   36905    35671    35755 1
   36906    35672    35673 1
   36907    35672    35676 1
   36908    35673    35674 1
   36909    35673    35677 1
   36910    35674    35675 1
   36911    35675    35676 1
   36912    35676    35682 1
   36913    35677    35678 1
   36914    35677    35681 1
   36915    35678    35679 1
   36916    35679    35680 1
   36917    35679    35683 1
   36918    35680    35681 1
   36919    35680    35686 1
   36920    35684    35685 1
   36921    35684    35692 1
   36922    35685    35686 1
   36923    35685    35693 1
   36924    35686    35687 1
   36925    35687    35688 1
   36926    35687    35691 1
   36927    35688    35689 1
   36928    35689    35690 1
   36929    35690    35691 1
   36930    35691    35692 1
   36931    35692    35820 1
   36932    35694    35695 1
   36933    35694    35714 1
   36934    35694    35715 1
   36935    35695    35696 1
   36936    35695    35706 1
   36937    35695    35716 1
   36938    35696    35697 1
   36939    35696    35717 1
   36940    35696    35718 1
   36941    35697    35698 1
   36942    35697    35719 1
   36943    35697    35720 1
   36944    35698    35699 1
   36945    35698    35721 1
   36946    35698    35722 1
   36947    35699    35700 1
   36948    35699    35723 1
   36949    35699    35724 1
   36950    35700    35701 1
   36951    35700    35725 1
   36952    35700    35726 1
   36953    35701    35702 1
   36954    35701    35727 1
   36955    35701    35728 1
   36956    35702    35703 1
   36957    35702    35729 1
   36958    35702    35730 1
   36959    35703    35704 1
   36960    35703    35731 1
   36961    35703    35732 1
   36962    35704    35705 1
   36963    35704    35733 1
   36964    35704    35734 1
   36965    35705    35735 1
   36966    35705    35736 1
   36967    35705    35737 1
   36968    35706    35707 1
   36969    35706    35738 1
   36970    35706    35739 1
   36971    35707    35708 1
   36972    35707    35740 1
   36973    35707    35741 1
   36974    35708    35709 1
   36975    35708    35742 1
   36976    35708    35743 1
   36977    35709    35710 1
   36978    35709    35744 1
   36979    35709    35745 1
   36980    35710    35711 1
   36981    35710    35746 1
   36982    35710    35747 1
   36983    35711    35712 1
   36984    35711    35748 1
   36985    35711    35749 1
   36986    35712    35713 1
   36987    35712    35750 1
   36988    35712    35751 1
   36989    35713    35752 1
   36990    35713    35753 1
   36991    35713    35754 1
   36992    35755    35756 1
   36993    35755    35775 1
   36994    35755    35776 1
   36995    35756    35757 1
   36996    35756    35767 1
   36997    35756    35777 1
   36998    35757    35758 1
   36999    35757    35778 1
   37000    35757    35779 1
   37001    35758    35759 1
   37002    35758    35780 1
   37003    35758    35781 1
   37004    35759    35760 1
   37005    35759    35782 1
   37006    35759    35783 1
   37007    35760    35761 1
   37008    35760    35784 1
   37009    35760    35785 1
   37010    35761    35762 1
   37011    35761    35786 1
   37012    35761    35787 1
   37013    35762    35763 1
   37014    35762    35788 1
   37015    35762    35789 1
   37016    35763    35764 1
   37017    35763    35790 1
   37018    35763    35791 1
   37019    35764    35765 1
   37020    35764    35792 1
   37021    35764    35793 1
   37022    35765    35766 1
   37023    35765    35794 1
   37024    35765    35795 1
   37025    35766    35796 1
   37026    35766    35797 1
   37027    35766    35798 1
   37028    35767    35768 1
   37029    35767    35799 1
   37030    35767    35800 1
   37031    35768    35769 1
   37032    35768    35801 1
   37033    35768    35802 1
   37034    35769    35770 1
   37035    35769    35803 1
   37036    35769    35804 1
   37037    35770    35771 1
   37038    35770    35805 1
   37039    35770    35806 1
   37040    35771    35772 1
   37041    35771    35807 1
   37042    35771    35808 1
   37043    35772    35773 1
   37044    35772    35809 1
   37045    35772    35810 1
   37046    35773    35774 1
   37047    35773    35811 1
   37048    35773    35812 1
   37049    35774    35813 1
   37050    35774    35814 1
   37051    35774    35815 1
   37052    35816    35817 1
   37053    35816    35823 1
   37054    35816    35839 1
   37055    35816    35900 1
   37056    35817    35818 1
   37057    35817    35821 1
   37058    35818    35819 1
   37059    35818    35822 1
   37060    35819    35820 1
   37061    35820    35821 1
   37062    35821    35827 1
   37063    35822    35823 1
   37064    35822    35826 1
   37065    35823    35824 1
   37066    35824    35825 1
   37067    35824    35828 1
   37068    35825    35826 1
   37069    35825    35831 1
   37070    35829    35830 1
   37071    35829    35837 1
   37072    35830    35831 1
   37073    35830    35838 1
   37074    35831    35832 1
   37075    35832    35833 1
   37076    35832    35836 1
   37077    35833    35834 1
   37078    35834    35835 1
   37079    35835    35836 1
   37080    35836    35837 1
   37081    35837    35965 1
   37082    35839    35840 1
   37083    35839    35859 1
   37084    35839    35860 1
   37085    35840    35841 1
   37086    35840    35851 1
   37087    35840    35861 1
   37088    35841    35842 1
   37089    35841    35862 1
   37090    35841    35863 1
   37091    35842    35843 1
   37092    35842    35864 1
   37093    35842    35865 1
   37094    35843    35844 1
   37095    35843    35866 1
   37096    35843    35867 1
   37097    35844    35845 1
   37098    35844    35868 1
   37099    35844    35869 1
   37100    35845    35846 1
   37101    35845    35870 1
   37102    35845    35871 1
   37103    35846    35847 1
   37104    35846    35872 1
   37105    35846    35873 1
   37106    35847    35848 1
   37107    35847    35874 1
   37108    35847    35875 1
   37109    35848    35849 1
   37110    35848    35876 1
   37111    35848    35877 1
   37112    35849    35850 1
   37113    35849    35878 1
   37114    35849    35879 1
   37115    35850    35880 1
   37116    35850    35881 1
   37117    35850    35882 1
   37118    35851    35852 1
   37119    35851    35883 1
   37120    35851    35884 1
   37121    35852    35853 1
   37122    35852    35885 1
   37123    35852    35886 1
   37124    35853    35854 1
   37125    35853    35887 1
   37126    35853    35888 1
   37127    35854    35855 1
   37128    35854    35889 1
   37129    35854    35890 1
   37130    35855    35856 1
   37131    35855    35891 1
   37132    35855    35892 1
   37133    35856    35857 1
   37134    35856    35893 1
   37135    35856    35894 1
   37136    35857    35858 1
   37137    35857    35895 1
   37138    35857    35896 1
   37139    35858    35897 1
   37140    35858    35898 1
   37141    35858    35899 1
   37142    35900    35901 1
   37143    35900    35920 1
   37144    35900    35921 1
   37145    35901    35902 1
   37146    35901    35912 1
   37147    35901    35922 1
   37148    35902    35903 1
   37149    35902    35923 1
   37150    35902    35924 1
   37151    35903    35904 1
   37152    35903    35925 1
   37153    35903    35926 1
   37154    35904    35905 1
   37155    35904    35927 1
   37156    35904    35928 1
   37157    35905    35906 1
   37158    35905    35929 1
   37159    35905    35930 1
   37160    35906    35907 1
   37161    35906    35931 1
   37162    35906    35932 1
   37163    35907    35908 1
   37164    35907    35933 1
   37165    35907    35934 1
   37166    35908    35909 1
   37167    35908    35935 1
   37168    35908    35936 1
   37169    35909    35910 1
   37170    35909    35937 1
   37171    35909    35938 1
   37172    35910    35911 1
   37173    35910    35939 1
   37174    35910    35940 1
   37175    35911    35941 1
   37176    35911    35942 1
   37177    35911    35943 1
   37178    35912    35913 1
   37179    35912    35944 1
   37180    35912    35945 1
   37181    35913    35914 1
   37182    35913    35946 1
   37183    35913    35947 1
   37184    35914    35915 1
   37185    35914    35948 1
   37186    35914    35949 1
   37187    35915    35916 1
   37188    35915    35950 1
   37189    35915    35951 1
   37190    35916    35917 1
   37191    35916    35952 1
   37192    35916    35953 1
   37193    35917    35918 1
   37194    35917    35954 1
   37195    35917    35955 1
   37196    35918    35919 1
   37197    35918    35956 1
   37198    35918    35957 1
   37199    35919    35958 1
   37200    35919    35959 1
   37201    35919    35960 1
   37202    35961    35962 1
   37203    35961    35968 1
   37204    35961    35984 1
   37205    35961    36045 1
   37206    35962    35963 1
   37207    35962    35966 1
   37208    35963    35964 1
   37209    35963    35967 1
   37210    35964    35965 1
   37211    35965    35966 1
   37212    35966    35972 1
   37213    35967    35968 1
   37214    35967    35971 1
   37215    35968    35969 1
   37216    35969    35970 1
   37217    35969    35973 1
   37218    35970    35971 1
   37219    35970    35976 1
   37220    35974    35975 1
   37221    35974    35982 1
   37222    35975    35976 1
   37223    35975    35983 1
   37224    35976    35977 1
   37225    35977    35978 1
   37226    35977    35981 1
   37227    35978    35979 1
   37228    35979    35980 1
   37229    35980    35981 1
   37230    35981    35982 1
   37231    35982    36110 1
   37232    35984    35985 1
   37233    35984    36004 1
   37234    35984    36005 1
   37235    35985    35986 1
   37236    35985    35996 1
   37237    35985    36006 1
   37238    35986    35987 1
   37239    35986    36007 1
   37240    35986    36008 1
   37241    35987    35988 1
   37242    35987    36009 1
   37243    35987    36010 1
   37244    35988    35989 1
   37245    35988    36011 1
   37246    35988    36012 1
   37247    35989    35990 1
   37248    35989    36013 1
   37249    35989    36014 1
   37250    35990    35991 1
   37251    35990    36015 1
   37252    35990    36016 1
   37253    35991    35992 1
   37254    35991    36017 1
   37255    35991    36018 1
   37256    35992    35993 1
   37257    35992    36019 1
   37258    35992    36020 1
   37259    35993    35994 1
   37260    35993    36021 1
   37261    35993    36022 1
   37262    35994    35995 1
   37263    35994    36023 1
   37264    35994    36024 1
   37265    35995    36025 1
   37266    35995    36026 1
   37267    35995    36027 1
   37268    35996    35997 1
   37269    35996    36028 1
   37270    35996    36029 1
   37271    35997    35998 1
   37272    35997    36030 1
   37273    35997    36031 1
   37274    35998    35999 1
   37275    35998    36032 1
   37276    35998    36033 1
   37277    35999    36000 1
   37278    35999    36034 1
   37279    35999    36035 1
   37280    36000    36001 1
   37281    36000    36036 1
   37282    36000    36037 1
   37283    36001    36002 1
   37284    36001    36038 1
   37285    36001    36039 1
   37286    36002    36003 1
   37287    36002    36040 1
   37288    36002    36041 1
   37289    36003    36042 1
   37290    36003    36043 1
   37291    36003    36044 1
   37292    36045    36046 1
   37293    36045    36065 1
   37294    36045    36066 1
   37295    36046    36047 1
   37296    36046    36057 1
   37297    36046    36067 1
   37298    36047    36048 1
   37299    36047    36068 1
   37300    36047    36069 1
   37301    36048    36049 1
   37302    36048    36070 1
   37303    36048    36071 1
   37304    36049    36050 1
   37305    36049    36072 1
   37306    36049    36073 1
   37307    36050    36051 1
   37308    36050    36074 1
   37309    36050    36075 1
   37310    36051    36052 1
   37311    36051    36076 1
   37312    36051    36077 1
   37313    36052    36053 1
   37314    36052    36078 1
   37315    36052    36079 1
   37316    36053    36054 1
   37317    36053    36080 1
   37318    36053    36081 1
   37319    36054    36055 1
   37320    36054    36082 1
   37321    36054    36083 1
   37322    36055    36056 1
   37323    36055    36084 1
   37324    36055    36085 1
   37325    36056    36086 1
   37326    36056    36087 1
   37327    36056    36088 1
   37328    36057    36058 1
   37329    36057    36089 1
   37330    36057    36090 1
   37331    36058    36059 1
   37332    36058    36091 1
   37333    36058    36092 1
   37334    36059    36060 1
   37335    36059    36093 1
   37336    36059    36094 1
   37337    36060    36061 1
   37338    36060    36095 1
   37339    36060    36096 1
   37340    36061    36062 1
   37341    36061    36097 1
   37342    36061    36098 1
   37343    36062    36063 1
   37344    36062    36099 1
   37345    36062    36100 1
   37346    36063    36064 1
   37347    36063    36101 1
   37348    36063    36102 1
   37349    36064    36103 1
   37350    36064    36104 1
   37351    36064    36105 1
   37352    36106    36107 1
   37353    36106    36113 1
   37354    36106    36129 1
   37355    36106    36190 1
   37356    36107    36108 1
   37357    36107    36111 1
   37358    36108    36109 1
   37359    36108    36112 1
   37360    36109    36110 1
   37361    36110    36111 1
   37362    36111    36117 1
   37363    36112    36113 1
   37364    36112    36116 1
   37365    36113    36114 1
   37366    36114    36115 1
   37367    36114    36118 1
   37368    36115    36116 1
   37369    36115    36121 1
   37370    36119    36120 1
   37371    36119    36127 1
   37372    36120    36121 1
   37373    36120    36128 1
   37374    36121    36122 1
   37375    36122    36123 1
   37376    36122    36126 1
   37377    36123    36124 1
   37378    36124    36125 1
   37379    36125    36126 1
   37380    36126    36127 1
   37381    36127    36252 1
   37382    36129    36130 1
   37383    36129    36149 1
   37384    36129    36150 1
   37385    36130    36131 1
   37386    36130    36141 1
   37387    36130    36151 1
   37388    36131    36132 1
   37389    36131    36152 1
   37390    36131    36153 1
   37391    36132    36133 1
   37392    36132    36154 1
   37393    36132    36155 1
   37394    36133    36134 1
   37395    36133    36156 1
   37396    36133    36157 1
   37397    36134    36135 1
   37398    36134    36158 1
   37399    36134    36159 1
   37400    36135    36136 1
   37401    36135    36160 1
   37402    36135    36161 1
   37403    36136    36137 1
   37404    36136    36162 1
   37405    36136    36163 1
   37406    36137    36138 1
   37407    36137    36164 1
   37408    36137    36165 1
   37409    36138    36139 1
   37410    36138    36166 1
   37411    36138    36167 1
   37412    36139    36140 1
   37413    36139    36168 1
   37414    36139    36169 1
   37415    36140    36170 1
   37416    36140    36171 1
   37417    36140    36172 1
   37418    36141    36142 1
   37419    36141    36173 1
   37420    36141    36174 1
   37421    36142    36143 1
   37422    36142    36175 1
   37423    36142    36176 1
   37424    36143    36144 1
   37425    36143    36177 1
   37426    36143    36178 1
   37427    36144    36145 1
   37428    36144    36179 1
   37429    36144    36180 1
   37430    36145    36146 1
   37431    36145    36181 1
   37432    36145    36182 1
   37433    36146    36147 1
   37434    36146    36183 1
   37435    36146    36184 1
   37436    36147    36148 1
   37437    36147    36185 1
   37438    36147    36186 1
   37439    36148    36187 1
   37440    36148    36188 1
   37441    36148    36189 1
   37442    36190    36191 1
   37443    36190    36210 1
   37444    36190    36211 1
   37445    36191    36192 1
   37446    36191    36202 1
   37447    36191    36212 1
   37448    36192    36193 1
   37449    36192    36213 1
   37450    36192    36214 1
   37451    36193    36194 1
   37452    36193    36215 1
   37453    36193    36216 1
   37454    36194    36195 1
   37455    36194    36217 1
   37456    36194    36218 1
   37457    36195    36196 1
   37458    36195    36219 1
   37459    36195    36220 1
   37460    36196    36197 1
   37461    36196    36221 1
   37462    36196    36222 1
   37463    36197    36198 1
   37464    36197    36223 1
   37465    36197    36224 1
   37466    36198    36199 1
   37467    36198    36225 1
   37468    36198    36226 1
   37469    36199    36200 1
   37470    36199    36227 1
   37471    36199    36228 1
   37472    36200    36201 1
   37473    36200    36229 1
   37474    36200    36230 1
   37475    36201    36231 1
   37476    36201    36232 1
   37477    36201    36233 1
   37478    36202    36203 1
   37479    36202    36234 1
   37480    36202    36235 1
   37481    36203    36204 1
   37482    36203    36236 1
   37483    36203    36237 1
   37484    36204    36205 1
   37485    36204    36238 1
   37486    36204    36239 1
   37487    36205    36206 1
   37488    36205    36240 1
   37489    36205    36241 1
   37490    36206    36207 1
   37491    36206    36242 1
   37492    36206    36243 1
   37493    36207    36208 1
   37494    36207    36244 1
   37495    36207    36245 1
   37496    36208    36209 1
   37497    36208    36246 1
   37498    36208    36247 1
   37499    36209    36248 1
   37500    36209    36249 1
   37501    36209    36250 1
@<TRIPOS>SUBSTRUCTURE
       1 RES             1 RESIDUE    0 **** ROOT      0
